    26
        -50.47250293  Gyration_radius:  2.48721640561 Dipole_moment: 2.886
 S           1.14243714797121    1.29484682885480    1.47023941240789
O           2.21071085377511    1.19092053263091    0.48358861541198
O           0.44141564335525    0.03724177380470    1.64539538305784
O           0.26149627261756    2.41549462404637    1.20243993293706
O           1.84225080907121    1.60537881981577    2.85716009722329
H           2.15271206197374    2.49238434871553    2.71142447776077
H          -0.68363592857530    2.16620607456581   -0.05598896370718
O           0.67714845354610   -2.42590808687968    0.56578887226306
H           0.61534190750455   -1.68067793709531    1.19159057365226
O          -0.54313395092450   -0.19068066177465   -2.29292840327491
H          -0.82930069907229    0.63220452566355   -1.85329736402652
O          -1.30853157643499    1.96889438755349   -0.80219261589112
H          -1.57221152783589    2.81933747767433   -1.15666762359569
O          -1.77055518343860   -2.01329578003236   -0.63391814990908
H          -2.54825776039879   -2.56953275400750   -0.68047298691695
H          -1.06115790707523   -0.90026905419927   -1.87157709125069
H          -1.98394363061038   -1.28172158250010    0.01540233091846
O          -2.14516779588899   -0.00161964133358    0.97779016500569
H          -1.25991203521981    0.02941930980352    1.39305169492672
H          -2.16039839448739    0.76446246684866    0.38544140449008
H          -0.21058356833920   -2.49147024257854    0.16885480708697
N           1.77099490881782   -0.77914239085997   -1.16607168408713
H           0.92055953548234   -0.50644939556661   -1.74164480117625
H           2.55598799974720   -1.03743662616505   -1.75252429684249
H           2.01976479872464    0.03578086465024   -0.53352759788734
H           1.46596957571704   -1.57436786167528   -0.52735617860186
