    26
        -50.47250301  Gyration_radius:  2.48736206632 Dipole_moment: 2.878
 S          -2.17706048937066    0.35952556363246   -0.52452288459495
O          -1.72855919518803    1.72509569331645   -0.76828396455275
O          -1.55790005042557   -0.21233273864065    0.65586228066866
O          -2.05053672976137   -0.47379037977905   -1.70491928026844
O          -3.72736957363262    0.44623434316132   -0.21023764444808
H          -4.07348222578217    0.68636313946289   -1.06280732246887
H          -0.53849058692089   -0.85012124906366   -2.03758258750995
O           0.21989485152487    0.68294505551495    2.47982580785329
H          -0.57145805449406    0.30908540693805    2.05001528093099
O           2.19725672939514    0.37829848493537   -0.78490464314922
H           1.61837901664996   -0.14226905324963   -1.37333164290740
O           0.40243670454104   -1.12737171499058   -2.19290871419768
H           0.46513158690901   -1.33622468670273   -3.12615589593366
O           2.00400068526189   -1.16790646939264    1.48601916715860
H           2.55966799822465   -1.80390648879859    1.93677515936587
H           2.32566391583501   -0.17669260349036    0.00548027214499
H           1.25738860247372   -1.68899439842324    1.06933462059184
O           0.01387462600953   -2.34005040994539    0.28213359902928
H           0.21321297094173   -2.21798649220977   -0.65779006980595
H           0.91987356975975    0.02127179020142    2.33041519681253
H          -0.68681144051211   -1.68346674318959    0.46948727836438
N           0.59453167779624    2.15370774545308    0.33416953516522
H          -0.35039963246293    2.05651807181318   -0.13889449411224
H           1.29530864635766    1.55513816500255   -0.19428731656922
H           0.88299867988359    3.12427585887201    0.37481790863512
H           0.49244772697137    1.72265410957774    1.30229037379789
