    26
        -50.45316400  Gyration_radius:  2.76349131328 Dipole_moment: 6.496
 S           1.74008964167702   -1.44982296483888    2.01571420643820
O           2.33393306367946   -2.62213881380296    2.56782251914083
O           2.58261543046431   -0.70944282428421    1.07456505258716
O           1.53765920526126   -0.43231407745017    3.26620832929479
O           0.38811770439227   -1.59875694255565    1.48029335068027
H          -0.34156423603269   -0.18241233574063    1.83925114001167
H           2.18613742004824   -0.77267406441000    3.87339901019342
O          -0.62316127536703    0.76422260067551    1.90885914323121
H          -0.30117470387246    1.04711550584398    2.76670891399460
O          -0.72398045176985   -1.38802741912867   -0.95520936690729
H          -0.38799963186700   -1.77388933724317   -0.12584093643966
O          -0.85656149131517    2.05597994525569   -1.99940209942345
H          -1.29278978780560    2.72551254858932   -2.52700898065630
O          -0.48526705914449   -0.22867663782309   -3.40600897905918
H          -0.50404459109744   -0.84679594654065   -2.65392019152666
H          -1.11140588366757   -0.56890276066599   -4.04669662598738
H          -0.70714360079585    1.28899972934604   -2.59229821644055
O          -2.41695737243242    0.54526998221044   -0.23778986030189
H          -2.08784603461528    0.69434625783586    0.65852567494589
H          -1.98388495660249    1.21439705012369   -0.79512177471906
H          -1.52083801217839   -0.86752077905328   -0.69505185626021
N           0.92905197989750    0.65088581118672   -0.30706584643748
H           1.73762210551774    0.13954393823549    0.19996791124676
H           0.35463742277568   -0.09829108657633   -0.76632296402755
H           0.33544502639904    1.06116727690683    0.43752873753483
H           1.21931009851667    1.35222532386115   -0.98110628106624
