    26
        -50.45316383  Gyration_radius:  2.76308585607 Dipole_moment: 6.495
 S           2.95327430623202    0.33920774311659   -0.59320549676052
O           2.77269084048779   -0.62494631918418    0.49385287157596
O           4.11755261883105    0.14134337488969   -1.39135255972185
O           3.17601644869524    1.76201974399363    0.15906845520957
O           1.69740756580837    0.53295394823318   -1.31559619601554
H           0.87631716353892    1.61261380970398   -0.40590517380277
H           4.12419830751749    1.83059124376649    0.12306148162450
O           0.38083083015983    2.09295711745625    0.30403509695798
H           1.01742420553635    2.71504559641022    0.66093581577472
O          -0.60700173463802   -0.83119958039722   -1.51840643117255
H           0.25519257454708   -0.43923339674730   -1.74780099781684
O          -2.50447248143121   -0.58288401382904    1.53240827618984
H          -3.36524567690444   -0.59381776356692    1.95183119014585
O          -2.10999552522451    1.17532487501121   -0.60575271591114
H          -1.22463973284056   -0.06665545038395   -1.43123238202203
H          -2.34582019423704    0.70616657153323    0.21295215354040
H          -1.39951470587241    1.78496240789899   -0.36601094373842
O          -2.24637075006155   -2.59999519142379   -0.25726252653890
H          -2.95826868289176   -2.92013826221547   -0.81310939742650
H          -1.61304628866835   -2.16195656090011   -0.85316674437657
H          -2.46996103455517   -1.37040977839281    0.94884030873396
N           0.28089398976512   -0.51761377975265    1.01629275410052
H          -0.14918495604243   -0.82900461771590    0.11067650443073
H           1.34836428380303   -0.66105782695073    0.90557163286807
H           0.13204787432230    0.50682251854014    1.07517009472823
H          -0.13868924584175   -1.00109639907044    1.80410493941895
