    26
        -50.46797329  Gyration_radius:  2.47255625433 Dipole_moment: 6.426
 S          -0.09203417253502   -0.73521026940059   -0.85734358621181
O           0.04437652787228   -1.81444396076373   -1.95221126740064
O          -1.46750191940530   -0.83146136103974   -0.35039715189000
O           0.84516544339349   -1.05077507024340    0.22108266598372
O           0.16921256950384    0.56722626907776   -1.44096982557760
O          -2.71602983386368    1.46838243704425    0.19292623029448
H          -3.13299462156173    1.91931826377921   -0.54256458086748
H          -2.30550586695365    0.66027779299023   -0.18161200944325
O           3.27556827764156   -1.13161064182706   -0.82857479089164
H           3.63749814713148   -1.99586100710971   -0.62653019899277
H           2.41582260115512   -1.07744394244869   -0.35877915231297
O           0.63392677485150    0.50744476089878    2.34512007880327
H          -0.74262660837485    0.04306787442329    2.42094810779845
H           0.93994680081564   -0.12705583393928    1.66079664494087
O           1.95721448631017   -0.56386078232006   -3.09291727013661
H           1.50172079642603    0.23134524735616   -2.77680099133961
H           2.65979089289739   -0.73498254749542   -2.43130616044667
H           0.78950850853566   -1.46186345963977   -2.52691670552594
O          -0.08352156449203    2.30715863443894    0.57532938318155
H           0.51733327721126    1.34910646357579    1.83414723161687
H           0.15548630775589    1.79397690746282   -0.22112642526127
H          -1.05298011750461    2.30792327423297    0.57355492444221
N          -1.76758220958177   -0.33027383342849    2.19065639894467
H          -2.41804885571444    0.45269387738003    2.12240451085870
H          -2.09455937660772   -1.03206990561253    2.84515759494079
H          -1.66918625490522   -0.72100916739147    1.20592633449706
