    26
        -50.45316361  Gyration_radius:  2.76290868859 Dipole_moment: 6.487
 S           2.91645124006396    0.82403402130776   -0.01736056736007
O           2.78800335686908   -0.53931973985774    0.50092053135430
O           4.14944637530039    1.10919001535815   -0.67330171039068
O           2.89855315754677    1.76530516967164    1.30674764460722
O           1.69950254633489    1.21575075665160   -0.72603531726520
H           0.68289279618849    1.68904218843145    0.46157644434839
H           3.82955023705496    1.92681594628454    1.41718169852261
O           0.08065147118748    1.75014361966464    1.24498544422699
H           0.60381211334295    2.19437283586002    1.91475549554540
O          -0.38534265170816   -0.09978757960296   -1.79036454916640
H           0.43188130980879    0.42580787236124   -1.71533974015501
O          -2.50999850373535   -1.42557568132449    0.79691243894309
H          -3.39060186646364   -1.69716277578774    1.05712297006086
O          -2.19809111950671    1.13805412447662   -0.27397023157199
H          -2.42762544871566    0.32983536406507    0.21602311641799
H          -1.59214065535262    1.62983732060368    0.29604791237141
H          -1.10259758657222    0.48599816083635   -1.44976797463147
O          -1.85689256953343   -2.38495231904112   -1.65124740208681
H          -2.32956151293147   -1.85769251707569   -0.06478510685641
H          -2.47536285977489   -2.48515715057266   -2.37633298864154
H          -1.24886734745132   -1.66989901560056   -1.91028672686580
N           0.27347598153948   -0.89681832185654    0.70808007506207
H          -0.01278388929074   -0.02836372189154    1.19678249887234
H          -0.04744072769227   -0.79803925668503   -0.28659307767967
H           1.35565806637942   -0.88155750133689    0.67639907425468
H          -0.13257190287821   -1.71986182496767    1.14185005811123
