    26
        -50.45316328  Gyration_radius:  2.76269411526 Dipole_moment: 6.492
 S           0.09744343597596    1.44364898848393    2.66275914792326
O           0.73267030338981    1.80646022219288    3.88611181308552
O           0.25725370980297    2.40485288948757    1.56985713861938
O          -1.49619303727215    1.45024545678720    2.97933121839363
O           0.34033561144626    0.08399587906724    2.18436264859658
H          -1.07585422281018   -0.35648128236615    1.49983563509099
H          -1.52018820942999    2.02711355744461    3.73545325048751
O           1.54647337005242   -0.98641171249054    0.03699697183726
H           1.36760570391208   -0.72373434349176    0.95822575001709
O          -0.43490997456788   -0.46946166192660   -2.92555664569024
H          -0.67514879732182   -0.78007693695017   -3.79895911505333
O          -1.88290454005015   -0.45054238223782    0.93418792096481
H          -2.58972968987660   -0.07374400191227    1.46150448320382
O          -0.63634127042871   -2.27246269105704   -0.79868789868022
H          -0.72647353722786   -1.72469129437527   -1.59735312056143
H           0.86448232773330   -1.66702849433292   -0.17581600665472
H          -1.26486067083818   -1.91256129393074   -0.15887077935359
O           2.24797922537575   -0.52951188510753   -2.55259090051530
H           0.54525024416803   -0.46704634792011   -2.89174699737104
H           2.23996489640604   -0.66975869354414   -1.58905486582125
H           2.83071155887952   -1.19839132823662   -2.91493748578241
N          -0.15912028554799    1.03215304914910   -0.53628327872528
H           0.61153890152836    0.32061719278083   -0.49317268165306
H          -0.22104775442210    1.44671774297038   -1.46079861647778
H          -1.03277275260585    0.53480242993879   -0.28255526889843
H           0.03383543376856    1.73129696152400    0.26775769305201
