    26
        -50.45316383  Gyration_radius:  2.76352981084 Dipole_moment: 6.503
 S          -0.12017383264261    2.95185335284192   -0.68345732700542
O           1.17009928740082    2.63818415426040   -0.06652047030933
O          -0.10444899283622    4.04408450284805   -1.59918165048915
O          -1.05562264770488    3.43334123105479    0.55484242811451
O          -0.77491013383297    1.72892451616526   -1.14443173907064
H          -1.49019582086859    1.12863362034717    0.19544002087635
H          -0.99443595557909    4.37809204695584    0.46133645964763
O          -1.70136189826083    0.74128762651815    1.08179809872815
H          -2.02208319674976    1.48374941870119    1.59708120204439
O           0.03416542261196   -0.77972176952074   -1.65932106781637
H          -0.28804928073378    0.13022478135814   -1.79271194190598
O           0.79750126964590   -2.52180544552843    1.39809628469601
H           0.86118829218992   -3.35727181516635    1.86166957742066
O          -1.61060615096205   -1.89347750064904    0.12180438719415
H          -0.70696232775043   -1.25472758678515   -1.21349465655304
H          -0.88518230503439   -2.18318195193831    0.70113658649202
H          -1.95759539276467   -1.08302821259992    0.51768509721120
O           1.89850614427752   -2.67333664083200   -1.07154753071013
H           1.35621209364672   -1.98525277793835   -1.49644195440679
H           1.26639975937906   -2.64149766507566    0.54479957445263
H           1.83269284702395   -3.44807008756100   -1.63158807173487
N           0.92648915730328    0.21705904265842    0.68990517023381
H           1.16533024266272    1.24059032856863    0.42998357331918
H           0.77051937379069   -0.28430769155308   -0.21923644913907
H           1.62482805553488   -0.25822710346334    1.25288000481896
H           0.00769600024262    0.24788162627718    1.16947439389990
