    26
        -50.46021212  Gyration_radius:  2.67679276188 Dipole_moment: 4.569
 S          -1.77769875354177   -0.50354050159114   -1.51602392062739
O          -1.53035699722734    0.52986475334832   -2.48387753693959
O          -2.10511412128659   -0.02957017671724   -0.18060687435867
O          -0.66850614283623   -1.46999378023714   -1.45843707188570
O          -3.05188761622201   -1.32213731548491   -1.98595015003771
H          -3.47912073467448   -1.47924933101783   -1.15083158937030
H           0.70416710290627   -0.73938588287448   -2.20533611841905
O           1.12316396237014   -1.58050342426723    2.96577820928935
H           0.44965054073644   -2.16442375297193    3.31769189315138
O           1.55597271617103   -0.29102227525914   -2.38859611940711
H           1.63160109076381   -0.26300943310462   -3.34355208377953
O          -0.21117437178711    1.49810611238144    0.76368217307904
H          -1.04978056099070    1.04272274122091    0.51221675850275
O           0.43388051640049    2.15328805487510   -1.68433271889673
H           0.05640597552995    1.97594037161832   -0.06353122253673
H           1.10492545896775    1.49388406386311   -1.92433156838134
H          -0.38596826679049    1.78704274812126   -2.06988151699880
O           0.31716795898803    0.95142842389399    3.39868224161116
H           0.83941474814578    1.66710788128528    3.76365249021293
H           0.01018611729869    1.25307107310002    2.52474486173121
H           0.87478142684624   -0.67509674894071    3.25441024196423
N           1.05531150638224   -0.78535917295581    0.39887943773136
H           1.16721615311557   -1.28282906109838    1.30999262302670
H           0.67503764481448    0.19060988532882    0.59948684857101
H           1.92588000426512   -0.72593176063588   -0.12444646236184
H           0.33484463162220   -1.23101348194386   -0.22948282489605
