    26
        -50.46021197  Gyration_radius:  2.67691686329 Dipole_moment: 4.580
 S          -0.19239595916015    2.10537581217224    1.11540657826159
O          -1.16429135202098    1.06329680142081    1.40647779039152
O          -0.50139287435531    2.92310176853602   -0.02546027147023
O           1.16029900465722    1.53155468342246    1.02176436573378
O          -0.18892355139307    3.03536217577669    2.39975756257893
H          -0.58833453486500    2.45547234306267    3.03917393759597
H           1.67117699580537    1.65181950700640   -0.62131539065860
O           0.88295652172839   -3.23480139711860    1.14565397157898
H           0.80501890242459   -3.29412089028162    2.09897905919510
O          -1.47887579582770   -0.52527089058060   -0.64047174031532
H          -1.55693655493269    0.03868441903148    0.16556524669553
O           1.90155862761972    1.47349704064082   -1.55693133391691
H           2.23382693985622    2.30324710229018   -1.90271951342263
O          -0.79663931967498    1.43896109422226   -2.22621328576705
H          -0.88685683853182    2.12034567893562   -1.53159569984287
H           0.16505604358328    1.33597396894805   -2.31146115630595
H          -1.40878432794055    0.12974818893375   -1.38226503114225
O          -1.60765388879162   -3.15544146618869    0.12607707223755
H          -1.94898294119657   -3.67370064089679   -0.60394387584101
H          -0.02676041258455   -3.34433645346767    0.79195882238917
H          -1.73132439367468   -2.22073388519308   -0.11883429673188
N           1.07670234206198   -0.84984168698680   -0.07931578725993
H           1.71499268839696   -0.74741019169506   -0.86508922910876
H           1.21918601411847   -1.74428477441735    0.44007812707033
H           1.18212844987000    0.00395210352067    0.53091194731566
H           0.06525019482329   -0.82045042108060   -0.41618787931320
