    26
        -50.46021162  Gyration_radius:  2.67679475447 Dipole_moment: 4.587
 S          -1.33286856169806    1.89442416501155    0.58807698648428
O          -0.84063673266515    1.02512842503476    1.64506272433537
O          -2.56993644744065    1.47896687553543   -0.01415379780651
O          -0.28438566828540    2.11536978161211   -0.42179947252077
O          -1.57420462952712    3.29709225903607    1.28715103850583
H          -1.04129976963320    3.19940704770890    2.06892011785079
H          -0.78345366196791    1.33225205066372   -1.87586896501590
O           3.43057816143999   -0.74398288678918    0.48088130067163
H           3.81109970231729   -0.18141814125082    1.15700880716831
O          -0.89954976220562    0.71254289292776   -2.62593697999057
H          -1.54353841610597    1.12527011124996   -3.20335090600175
O          -0.51538762854752   -1.41544304902688    0.77815502844373
H          -0.68775200177547   -0.58378995669874    1.28049324407100
O          -2.38022723247390   -0.99364271898240   -1.00580084995958
H          -2.69478697308165   -0.17190905402606   -0.58071178255166
H          -1.88569342557764   -0.66901451071799   -1.77572363178992
H          -1.29289965203320   -1.48837056033921    0.16627717426919
O           1.81827211975791   -2.51830175984251    1.70616655638008
H           2.95937908863393   -1.46128292697910    0.95842793919378
H           0.92106257328529   -2.18627696978055    1.52259356777657
H           1.79009561992492   -3.46559217503609    1.56493871659957
N           1.14478800974956   -0.06048007766397   -0.75778082978537
H           0.52202344290600   -0.73145070845254   -0.21059537700636
H           1.05390262692498   -0.22794214139477   -1.75726234883624
H           0.75047055798421    0.89704018648119   -0.55714701700730
H           2.12494866005320   -0.17859614829780   -0.41802122349167
