    26
        -50.46942771  Gyration_radius:  2.44006987739 Dipole_moment: 3.757
 S           0.17325114669853    1.68008004282541    0.53902458930400
O           0.97908536496991    1.00629018919238   -0.50767949455501
O           1.00550390722694    2.15484405414774    1.61400275530165
O          -0.86634601966920    0.76246560175726    1.00369497245537
O          -0.50792695117810    2.89480833324335   -0.13528770373841
H          -1.04601521366417    2.54488840820258   -0.89319512640345
H          -0.10989863480195   -0.14736043213435    2.86148720539411
O           0.83505518746627   -0.04127888784684    3.01816493755698
H           1.00409201253358    0.88045624391652    2.71281858992138
O           0.53137119787077   -2.74830559084450   -0.54334423787387
H           0.55190739241151   -2.39856877396954   -1.44186831071913
O          -1.74722756393746    1.93193433640957   -2.23417411948092
H          -1.46186651479245    2.45514974075859   -2.98569521029906
O          -0.49729742564477   -0.41844426866225   -2.16905807080624
H           0.13938281822793    0.08401804885796   -1.61336521533842
H          -1.09729510524003   -0.85326367259079   -1.54046439190329
H          -1.35718671616216    1.03144895728137   -2.35613288944069
O          -1.77395074333215   -1.44915627726337    0.05105022452728
H          -2.70448523486206   -1.50117393981533    0.27124161719466
H          -1.44459998335231   -0.59865406032277    0.44884969502010
H          -0.35701587281244   -2.52518883664983   -0.21177893021049
N           1.97668534091086   -0.97063408029888    0.82904474735140
H           1.50217237307515   -1.79938795325916    0.38332049370839
H           1.71006479693428   -0.12110063623218    0.23800245287142
H           1.57947014686216   -0.76285698603298    1.79349898561837
H           2.98307029418146   -1.09100954058974    0.86784242468498
