    26
        -50.46021205  Gyration_radius:  2.67673062548 Dipole_moment: 4.574
 S          -0.28756461645060    2.06709713602790   -1.16475494026560
O           0.86981894882552    1.99628930175307   -2.01405076609542
O          -0.00299986433141    2.09565124269650    0.26126798937236
O          -1.25296117650214    0.99891116918933   -1.47256826902245
O          -1.03310849240472    3.43449575971852   -1.46287490413285
H          -1.30221816766373    3.68431077287009   -0.58534208573148
H          -0.42946363876966   -0.21209856250217   -2.38332313509144
O          -1.97555711550087   -1.66466638642313    2.42460738971026
H          -2.60213566274223   -1.06212047053645    2.82808193097469
O           1.37976192871601    0.00387134024531    0.98560614183609
H           0.96390523662882    0.88938096522466    0.85602619572586
O           0.03873800081556   -1.02105963195205   -2.67771108884260
H           0.19529412964034   -0.90108613285023   -3.61552612599262
O           0.47324795069288   -1.04001594400194    3.35386069004231
H           0.89287387688601   -0.56884099266236    2.61162482968091
H          -1.11861661960397   -1.50847225911922    2.87822124208653
H           1.13268520568194   -1.64428160786244    3.69757048849709
O           2.36358527742812   -0.13985778321018   -1.43291891198398
H           2.05473730692587    0.75259145628971   -1.68415945118597
H           1.96622062008959   -0.10090383038519    0.19229559199924
H           1.74310591356795   -0.72691274005761   -1.89447847306356
N          -0.83320905590858   -1.09060264844233    0.06005735492004
H          -1.45197202061254   -1.37361846263993    0.85204890697530
H          -0.70329001174671   -1.83552911560845   -0.62079230887466
H          -1.18703719390276   -0.24287078201366   -0.45813339204675
H           0.10615923024904   -0.78966180375381    0.46536511051455
