    26
        -50.45568726  Gyration_radius:  2.56720815578 Dipole_moment: 1.978
 S           0.22169628450991    0.55184509814506    0.81178410625570
O          -0.88370468867103   -0.27724315706635    1.25499178007420
O           1.14757502420904    0.85977382043442    2.00547504946444
O           1.04378465619546   -0.18540879863247   -0.18094292031257
O          -0.21963550697377    1.82124812283578    0.26425166348763
O          -1.60472378494447   -0.18782277369450   -2.83554124149610
H          -1.76003922551935   -1.13336112285180   -2.86772463872839
O           0.71173244746941    2.94308145994005   -1.87087174176725
H           1.52594325908439    3.39598249664867   -1.64384962174143
H           0.30674121429823    2.64966582069590   -1.01350492023948
O          -2.58036508768644    0.61487458306145   -0.55350976472070
H          -2.04794533503233    0.14063411820817   -2.00192768800956
H          -2.06797852737955    0.17863408775753    0.16044897960279
H          -2.36520865189723    1.54717786504727   -0.45204069703923
O           2.23530581584483   -1.44331300175070    1.93604919001661
H           1.49971528230702   -2.00879175557936    2.28870613282082
H           2.08968842378234   -1.38751835329394    0.98233708174553
H           1.65966215344819    0.00124180667166    2.13541372179514
O           0.81462699166067    0.49523198341004   -2.53405617521401
H           0.96458943420284    0.15847471192166   -1.52472572594017
H          -0.15813906441500    0.21749748658287   -2.75145258720021
H           0.81139767764699    1.51629081398432   -2.43827823542401
N          -0.06247520273933   -2.60464464304539    2.67477465312088
H          -0.53411957730250   -1.82851429478104    2.20696013230503
H          -0.31617945560446   -2.56873099596736    3.65398819425361
H          -0.43194457648734   -3.46630535866704    2.29324527289844
