    26
        -50.45568718  Gyration_radius:  2.56696356755 Dipole_moment: 1.979
 S          -0.12453778547172    0.42190858969115    0.90537859758655
O          -0.53069334174217    0.81143839530534   -0.46869809645388
O          -0.42842910456032   -0.97835562289334    1.13500219448486
O           1.27551929348895    0.73120572793914    1.12892495214625
O          -0.95091574516875    1.29489922815559    1.87068874553954
O           2.07295534279871   -1.29138054780342   -2.16240413337392
H           1.48188987814120   -1.90796348694915   -2.59791954627548
O           2.74084693883706    2.23882754580268   -0.37614532821211
H           2.27976927060014    1.68781383137603    0.30867691023516
H           2.56861557795790    3.15399116589608   -0.14732539286207
O          -3.08044438544967    1.04990807708377    0.49305081812039
H          -2.48249118538194    1.01606057047692   -0.26537580280277
H          -3.32239035874526    0.10727632692323    0.68815588756869
H          -1.87465431817829    1.28458168998911    1.46729403384161
O           1.27408974030691    1.11086313054377   -2.11354616741311
H           1.96014145568106    1.62683004054279   -1.55244358534219
H           1.64242163940774    0.14948894986030   -2.21673453731329
H           0.44336334307027    1.00345094158473   -1.44047702936489
O           1.93900557276858   -1.85628226448073    0.38043550726222
H           1.01818618446177   -1.68766348603022    0.67405190292800
H           2.09043897641679   -1.55389471081343   -1.19798486110475
H           2.45483255405480   -1.19852432302814    0.85692057749114
N          -3.21480247430690   -1.56084799783739    1.07640437248472
H          -3.46402271142855   -2.29406917646496    0.42461670168142
H          -3.57298658984885   -1.82365187022877    1.98588816040737
H          -2.19570778767329   -1.53591071467003    1.14356511874418
