    26
        -50.45796989  Gyration_radius:  2.58063548859 Dipole_moment: 5.751
 S          -0.25101813280722    0.70359448210078   -2.33934104401229
O          -0.60143746614232   -0.68585370882156   -2.19398937600212
O           0.85828046963620    1.08073310906558   -1.46073375699167
O          -1.36287154184635    1.62988893847041   -2.23308572537779
O           0.30170342968499    0.87797377992959   -3.82790254821629
H           0.17902168613765    1.80882508754815   -3.98936352779962
H          -1.65329881502221    1.16285529048134   -0.75532127138305
O          -1.90982225452691    0.86697919442794    0.15671585124249
H          -2.86959399457240    0.83579143041452    0.14782318422357
O           0.20957820899219   -2.68473963741795   -0.64902706145786
H          -0.16347132978958   -2.14402445985822   -1.37461505731558
O           1.18301476008883   -0.10620892383643    2.54055075741106
H           1.74729705961873    0.07973363540525    3.29183265076280
O          -1.09053351292258   -1.49861686438689    1.38736075706757
H          -0.37570097368589   -1.18619309453560    1.95393709754839
H          -1.39302268659229   -0.72261096373807    0.88555957772964
H          -0.39686278764175   -2.52274399772950    0.10421816342583
O          -0.40582974300770    1.96387127483535    2.11685404019577
H          -0.87756237787193    1.68177922846594    1.30672779385517
H          -1.08435541851480    2.15235653989492    2.76792772553316
H           0.64374052971381    0.70966630869906    2.38527007515182
N           1.89264131374133   -0.80569461470858   -0.03267131540891
H           1.74902065246039   -0.56289486751709    0.96329780530965
H           2.87415693483139   -0.94860402394665   -0.23943478879175
H           1.29941213017999   -1.67791034083090   -0.27818845143482
H           1.49751387986194   -0.00795280243139   -0.63440153526597
