    26
        -50.45796987  Gyration_radius:  2.5805558371 Dipole_moment: 5.751
 S           1.66190614473703   -0.42409900992826   -1.75730962357871
O           0.59551699077528    0.40027339340179   -2.26502980565428
O           1.17285984395959   -1.42058642121072   -0.80202109451333
O           2.80559466765863    0.30390102308666   -1.24012007988869
O           2.22044008081675   -1.25825222532931   -2.99986829602393
H           3.09987651557712   -1.49167563157357   -2.71738162182846
H           1.91016285845304    0.99377632829464   -0.14076078948217
O          -2.00949706920111    0.60990905783784   -1.80656436913471
H          -1.11567387951773    0.64044482364873   -2.20430443123829
O           1.38099703040629    1.49340999110885    0.53413826934130
H           1.72853736107876    2.38833678497979    0.51068426006456
O          -1.61601619020261   -0.60426434591753    2.21113176958248
H          -1.99787659706254   -1.05549186003190    2.96481179405875
O           0.87395526489390    0.07771236027754    2.78047410453842
H           1.01586877821061    0.75445715883272    3.44505727423800
H          -0.67314364351547   -0.41345197709423    2.44606957039011
H           1.16623057135592    0.46590336241164    1.93060276674397
O          -1.39524167807846    1.76524326718894    0.54543857643994
H          -1.65368920148307    1.09947646911124    1.19317487748680
H          -0.43006039512638    1.68970741464082    0.45458280943311
H          -1.96098142733778    1.24773408749852   -1.06344889198172
N          -1.37659876141728   -1.47643788914263   -0.39586909273640
H          -1.78473505189202   -2.37000161894098   -0.64392940596112
H          -1.75999727301234   -0.67433720137178   -1.01437718007671
H          -1.54274671573419   -1.25017985111509    0.60049874134641
H          -0.31568823435929   -1.49150752066381   -0.56568010159061
