    26
        -50.45796987  Gyration_radius:  2.58055018735 Dipole_moment: 5.752
 S           1.88348510999593    1.57540172426377   -0.02662818981949
O           1.59396091694336    1.11877816614231   -1.36162728677479
O           1.68322688206446    0.51790939833016    0.96652357397077
O           1.22070273389430    2.80814104970336    0.35620104642137
O           3.44542850311365    1.90822198730508    0.00944843487174
H           3.51379985585139    2.51426810276282    0.74139468237939
H          -0.19625966057836    2.14225545359385    0.16858876489075
O          -1.59119757753989   -2.08993419377548    0.98316797416915
H          -1.95516655484542   -2.76754383346561    1.55398332714760
O           0.69060547389997   -1.13549472215947   -2.43047988466800
H           1.12248649156060   -0.27079026568151   -2.27612342016785
O          -1.10978775948249    1.78621710223067    0.01421187223713
H          -1.58795576316096    2.50245252161132   -0.41076865372057
O          -1.73460421117457   -0.50598224813599   -1.44752928074075
H          -1.46212308601887    0.31561110126052   -1.00449035325527
H          -0.26745032589228   -0.93830014183211   -2.36238578990464
H          -1.86439761759058   -1.15502867929023   -0.74646122798827
O          -2.04820740852466    0.28291087757003    2.05550073807676
H          -2.95469051465445    0.59368263670812    2.09427896750908
H          -1.73750321733746   -1.22584963233779    1.44422264255688
H          -1.58588885423285    0.87150597250266    1.42446296629595
N           0.99358257194303   -1.80008383724126    0.06149101390027
H           1.30480976619927   -0.85287645800404    0.46217876227461
H           1.67020491240314   -2.51823228351271    0.29172878946221
H           0.05977198439030   -2.02487254185739    0.44749708615295
H           0.91316733877118   -1.65236726668116   -1.00838654527540
