    26
        -50.46942766  Gyration_radius:  2.44025392709 Dipole_moment: 3.757
 S           0.84947843020442    1.31381414690919    0.83330442394827
O           1.22170413294511    0.71886186908803   -0.47296073081324
O           1.91426600474085    1.17582231973286    1.79293986508942
O          -0.39778728681880    0.70569960233706    1.29499637855453
O           0.59943873783447    2.82015934359951    0.58270776931800
H          -0.11167499192377    2.88839418647818   -0.10727607974896
H           0.16963192052195   -0.87031209368059    2.73184732785420
O           1.09734463579764   -1.12993852583390    2.70880851998548
H           1.56102640321719   -0.27048684141185    2.57479138983996
O          -0.60258571226538   -2.51355930694477   -1.20371685170380
H          -0.55438382367480   -1.96265501381358   -1.99380082875413
O          -1.13671417160784    2.93076968748949   -1.37741862964378
H          -0.76206728207534    3.51015853469342   -2.04365323860233
O          -0.85862883830486    0.37213922261294   -2.06108820694139
H          -0.02187771285585    0.46379268491225   -1.55308064738207
H          -1.50282469525980    0.01104963329397   -1.42950077865769
H          -1.12857623634370    2.01985356049103   -1.76199891996214
O          -2.17172764747621   -0.72824132825790    0.10350373421024
H          -1.50428582618237   -0.17888834064324    0.59621696445977
H          -1.29960393649451   -2.10479186413388   -0.65977005037217
H          -3.02267741896045   -0.51956065384020    0.48994328611664
N           1.54937400216774   -1.76051291010336    0.18750027184702
H           2.43451806830124   -2.21656667551864   -0.00584655123236
H           0.75131760882205   -2.23019246799773   -0.31562989802913
H           1.37177937367919   -1.69979914972534    1.23438002977806
H           1.55553626210566   -0.74500961005463   -0.14519854945386
