    26
        -50.45568720  Gyration_radius:  2.56707821112 Dipole_moment: 1.977
 S          -0.30486334685963    0.89433480664473   -0.34584865540646
O          -0.25052943347040    0.28435370561540    1.00689116316439
O          -0.51266501192991    2.40752278522307   -0.13623362853459
O           0.94715643772216    0.66746014892829   -1.04352766208219
O          -1.45093500426849    0.39550702542569   -1.08306581997333
O          -0.18900258853619   -3.24762961351173   -0.25162493661418
H           0.69001498353649   -3.48088762284565    0.05181056177455
O          -3.44171711296259   -0.90485635982833   -0.06742548503849
H          -4.04792358575776   -0.27304864529560    0.32361177004775
H          -2.77083489462495   -0.37399900105816   -0.57065130279989
O           1.12922484283290    2.50575937717328    1.80981184022201
H           1.99298351757208    2.40328494420109    1.33173802312460
H           0.11277684969254    2.62949044924135    0.62254683047044
H           0.82510457855648    1.60802902292078    1.99834349418422
O           0.16062242457199   -1.56085891654030   -2.21018748293840
H          -0.70509250006650   -1.24036169386070   -2.48150955262620
H           0.59935288812910   -0.76404217493340   -1.84253581226767
H          -0.06287750362492   -2.66550712180801   -1.05450462275010
O          -1.52323201713354   -1.79510905621940    1.33615869445284
H          -2.39458787690147   -1.56539646842338    0.84675517439435
H          -1.01473877597108   -2.46424326888624    0.73257015770151
H          -0.95528564628742   -0.88623480066707    1.25754351381466
N           3.17690257135261    1.95314468860108    0.17388779128776
H           3.54444612573226    2.70662794541219   -0.39329176525438
H           2.50268192230451    1.44018610299727   -0.39705455066414
H           3.94301814638430    1.32647374151877    0.38579224230001
