    26
        -50.45796986  Gyration_radius:  2.58081999646 Dipole_moment: 5.757
 S           0.65424286120700    1.63454214091985    1.71267907421182
O           1.36907217286306    1.39934297671865    0.45632377970136
O           0.23549439050962    0.40250542683560    2.33018418838272
O          -0.39115568873492    2.62931361966630    1.56105523375403
O           1.72422289412914    2.29446867844595    2.69820140370512
H           1.69867192812395    3.21389170728084    2.45001548752539
H          -1.22169952456603    1.66178798568744    0.63312258129616
O           0.36178124045284   -2.16794759751040    1.68547417564278
H           0.29932228113069   -1.31690527640755    2.16501054828094
O           0.15252618219213   -1.36141274691443   -2.44780564632586
H           0.40367432029369   -1.61024843095382   -3.33797667955941
O          -1.80641751122900    1.07276740623326    0.08886144269122
H          -2.69479684463750    1.23155913700721    0.41717850316631
O          -1.10972788344166    0.96043579541725   -2.52058579274224
H          -0.26858180154374   -0.46765339496846   -2.51414275472161
H          -1.97631447072649    0.98978954124413   -2.93047820776675
H          -1.25422549849457    1.13110105110109   -1.56747305036166
O          -1.56762346875154   -1.69792030372465   -0.13111613057156
H          -1.64084214090100   -0.74243904708662    0.03373169680232
H          -1.10603075002412   -1.78750463650370   -0.97283749092863
H          -0.47612060225913   -2.21732233561484    1.17863879887018
N           1.74628413664207   -1.06544914162841   -0.21466427807538
H           1.25002181530446   -1.22968047954961   -1.10813958937371
H           1.62505737795369   -0.03201423174942    0.05339332757963
H           1.26307280019523   -1.62987946867471    0.57329211477235
H           2.73009178430540   -1.29512837525394   -0.29194274594109
