    26
        -50.45796983  Gyration_radius:  2.58059420453 Dipole_moment: 5.749
 S          -1.68435391821608   -0.64969594319478   -1.66469749109423
O          -1.93787629590455   -0.47414064795560   -0.23305461977214
O          -0.44610777596796   -1.34386450205093   -1.90852472180601
O          -1.84484417023289    0.59223617324786   -2.39773187982569
O          -2.85072949429483   -1.60449276381816   -2.19356624183546
H          -3.56682715110653   -0.99514445578011   -2.34704852752080
H          -0.58005920601935    1.21190839269602   -1.68860161361791
O           0.97428311175230    0.69865046337241    2.53552269748646
H           1.01642553856222    0.94682705842008    3.45966610194454
O           0.23804240365963    1.62763492168765   -1.31045597113476
H           0.65135836280359    2.08133030793989   -2.04910630040663
O           1.52211278667061   -2.28047155682743   -0.39555625755964
H           0.88563720590567   -2.11552891612914   -1.12061432544101
O           2.29936746187163    0.26780373478324   -0.01306866273270
H           2.08523599478137    0.42724091701848    0.91340727214286
H           2.06338808101279   -1.46349108141932   -0.36386306755901
H           1.58360534296127    0.67819791134971   -0.52762944946723
O          -0.11556135384438    2.67379418574844    1.15694167451408
H           0.38018458958412    3.49008208969800    1.06917594255394
H          -0.15638360868941    2.28288960271641    0.26031849407106
H           0.51534705002692    1.44005858965562    2.06614852664626
N          -0.20883239685377   -1.51063141668349    1.38060769986424
H           0.21543573756219   -0.74016909370073    1.92640669624334
H          -0.62172742375875   -2.20865590523432    1.98791445429293
H          -0.95627627452773   -1.09231252183636    0.73179318662341
H           0.53915542226701   -1.94005553368184    0.72561639337277
