    26
        -50.44129344  Gyration_radius:  2.40327117298 Dipole_moment: 7.438
 S          -1.03119667084524    1.84652243997101   -0.83027139953658
O          -1.09534386707728    3.22682873607917   -1.18426875907304
O          -1.57187879622107    1.51977417493999    0.48725207717159
O           0.55476034109075    1.49898494571707   -0.70077225479281
O          -1.46897058156873    0.89379672069951   -1.84054876470687
H          -0.30587949806513   -0.02619825343026   -2.21577069070647
H           0.91406340709421    2.28127160679851   -0.29453795256322
O           0.49734618325905   -0.58580270365051   -2.45967031740625
H           1.01021852793648   -0.03411822839581   -3.05369745941470
O          -0.05094651932754   -2.03100619227795    1.15121784479339
H          -0.09295157258592   -2.98739749569794    1.18139610394298
O           2.48826835840261    0.83632113372748    1.13449151026561
H           3.14770392430176    0.58969359249858    1.78546535372455
O           1.76028050407079   -1.10073030411592   -0.35347660929494
H           2.08535652271129   -0.25097410312029    0.12882033383444
H           1.03756981788249   -1.51131907223475    0.26512100731450
H           1.25223069324529   -0.82802581027134   -1.23832318900323
O           0.15903294255892    0.63363775345624    2.25015184206643
H          -0.01822371278453   -0.31353003807260    2.20099562092513
H           1.60931785915807    0.87590204333102    1.61671760455536
H          -0.51420778801868    1.05234716294636    1.66332248658718
N          -2.15481835341985   -1.12878214430895    0.02472003781585
H          -2.06954004269181   -0.12412779721218    0.22526582543467
H          -2.14157659032613   -1.19793565050655   -0.98661391153970
H          -0.93704931540492   -1.70184198153586    0.69231880137619
H          -3.06356577337505   -1.43329055534367    0.35069484822945
