    26
        -50.45796984  Gyration_radius:  2.5806943618 Dipole_moment: 5.749
 S           1.47238183539233    1.71198046288513    0.96561813855584
O           1.80808023363582    0.85991460164970   -0.17718760900248
O           0.81213463349652    0.97208471323708    2.01022269291407
O           0.79408011002375    2.92645344913618    0.55273898380098
O           2.87129823615255    2.19464679917069    1.56706357535939
H           3.09179780025991    2.93849533738369    1.01410630845159
H          -0.47062189687794    2.10352218180536    0.09511072126602
O          -0.02821261095381   -1.52662935849123    2.31107281060616
H           0.28344660926635   -0.61105261890908    2.46152997344774
O          -0.78342848606169   -1.99404733233532   -1.80975434133803
H          -0.80891712653354   -2.57561328496642   -2.57040368751365
O          -1.30968831831763    1.63770052165494   -0.15819686709250
H          -2.01576880206218    2.20525069502535    0.16046829903664
O          -1.21835880265962    0.48982144935243   -2.60382870691274
H          -1.10803377122662    0.98219661046010   -1.76489305647343
H          -0.89845437626229   -1.07345928203931   -2.15604078456582
H          -2.09234567391952    0.71225862318680   -2.93004252407564
O          -2.02426088144314   -0.94980737030697    0.60022274509573
H          -1.79293518264908   -1.45490413976343   -0.18779228296422
H          -0.92037167685478   -1.41296270842906    1.92046053269222
H          -1.75167684980155   -0.03386142555041    0.42056136757317
N           1.23148893726862   -1.64740603872890    0.04348186215320
H           0.54157982664056   -1.87894118032838   -0.69270022075023
H           1.50501814081797   -0.61385992390442   -0.06392339135928
H           0.75885351047051   -1.72493790661245    1.01483343434254
H           2.05291455221457   -2.23684286459263   -0.02272798324454
