    26
        -50.45788893  Gyration_radius:  2.41141542792 Dipole_moment: 7.658
 S           1.15066335350977    0.00190906465014   -1.95531792303924
O           1.99306901229706    0.79952666563696   -2.78048262008152
O          -0.14086494652245    0.68426453470057   -1.64094153772695
O           1.84177999726285   -0.18926245694273   -0.54122133394276
O           0.88413694645120   -1.36208545733168   -2.37432794113746
H           0.65534703195257   -2.09612766939696   -1.01990103454858
H           1.91598130189588    0.68005706277553   -0.08887870496684
O          -1.93161285201415    0.35563564461350    1.68558875385188
H          -2.38230346131380    0.36984283680331    2.53032492768875
O           0.32957691747750   -2.52430945345704   -0.17284433473845
H           0.74076980809883   -3.38876247043403   -0.13841610849064
O           1.77132167071578    1.94256859810820    0.99373618543010
H           2.35671344221996    2.65811060394091    0.74184867345247
O          -0.68406388523517    2.46809949276275    0.26062808973154
H          -1.26582680210832    1.90931910052449    0.79619248829328
H           0.84557986083050    2.25567609385988    0.79660130292173
H          -0.54003707705544    1.97053922720480   -0.56981990860825
O           0.47489665301473   -0.62230078389155    1.94613180463915
H           1.11361917007067    0.08723496218446    1.80989750734876
H          -1.01349886519225    0.00129753185300    1.86152064221649
H           0.61959294276819   -1.25546803568502    1.22160351802648
N          -1.78594567471359   -0.96957675843772   -0.67149865811765
H          -1.09763079702130   -0.24961847779034   -1.16957188026194
H          -1.18958611023315   -1.78588941775018   -0.43761383022856
H          -2.11093515708202   -0.51664128063003    0.20197404665826
H          -2.55074247008122   -1.22403918787325   -1.28521213436421
