    26
        -50.45568722  Gyration_radius:  2.56717929427 Dipole_moment: 1.976
 S           0.06965169616613    0.09556009048663   -0.99884096734306
O          -1.34631468323492   -0.13185627493108   -0.77717647994136
O           0.47673805606762   -0.47916418984275   -2.37028236444082
O           0.41357350843565    1.50535630167948   -0.99812822002763
O           0.86703159442335   -0.63514770341428    0.01861093652005
O          -0.26224296616901    1.49845087687447    2.88748619583191
H          -0.74255989667419    0.82527529480049    3.37256929962589
O           2.48103926772294    2.54773265561562    0.15277975720850
H           3.23971716800158    2.42693554778744   -0.42113462287070
H           1.68586920274911    2.27193187525911   -0.37327790878629
O           0.51862805970247   -2.87703426042185   -1.50975745356191
H          -0.45211261223014   -3.05615391470976   -1.40608339821582
H           0.51796331175666   -1.47316981150706   -2.20750124856178
H           0.80328820520822   -2.48073975969345   -0.67557930328344
O           1.88790273149973    0.71402932511840    1.80469607402197
H           2.24122266275960    1.51076734156924    1.26437792241089
H           1.06099698312322    1.05518110409622    2.32475342450427
H           1.47558599401338    0.07245470285405    1.04759454569432
O          -1.68206395275799    1.98628404571561    0.75453620119974
H          -1.18448048734944    2.59766555196218    0.20281703743204
H          -1.71281425221810    1.16341069591920    0.22116401890986
H          -0.83941894368021    1.74963193817209    2.11089112414504
N          -2.13423767706962   -2.84351824688132   -1.14168631796276
H          -2.03792123331597   -1.83894306460203   -0.98284304989849
H          -2.62000952402201   -3.23744107254140   -0.34582505644328
H          -2.72503220289477   -2.96749905939076   -1.95416012617561
