    26
        -50.46365773  Gyration_radius:  2.44723132581 Dipole_moment: 8.571
 S          -0.87507564363391    2.23157252691689    0.41947515609052
O          -1.03297722901617    3.63928292720811    0.26554123364013
O          -1.35626502208464    1.42532380146796   -0.69619554087155
O          -1.79874774851011    1.81642420202793    1.67272272607560
O           0.46029933711205    1.78615918554520    0.82779380899404
H           0.20035908486523    0.48922762838316    1.66193729332127
H          -2.40825843164110    2.54466567715348    1.65304350917322
O          -0.30299033071519   -2.27610291657514   -1.36461498121931
H          -0.73755512388980   -3.05754887600646   -1.70604858720004
O           2.23291928423964    0.72672679834870   -0.82750490852732
H           1.72075563292391    1.29838686525859   -0.21604688866944
O           0.07277210822857   -0.38446045458226    2.12991460891832
H          -0.16982860365209   -0.15874013701047    3.02851444700994
O          -1.85911461162981   -0.96902098726232    0.22864950160809
H          -1.36977548614412   -0.89370444430559    1.06303450201861
H          -1.81798634614705   -0.06303773821848   -0.15488528382013
H          -0.97904074005938   -1.80372908449264   -0.78589440550177
O           0.26957117041352    0.28936026154560   -2.50950905812427
H           0.04255311643819   -0.64009061974802   -2.36811669722553
H          -0.38321171003704    0.79740277159447   -1.98885607639018
H           1.64503363682735    0.64648692167066   -1.62400324915419
N           1.70385696057228   -1.52141607155793    0.27149620446938
H           2.48749864842659   -2.12683425739109    0.48565697241871
H           1.18666814789683   -1.25264485348080    1.12679944861134
H           2.03250739481346   -0.56835638311538   -0.20635921111355
H           1.03603251440141   -1.97533273337002   -0.38654453452772
