    26
        -50.46365779  Gyration_radius:  2.44723245513 Dipole_moment: 8.572
 S           1.19275336648496    2.00453700558006   -0.69310123870599
O           1.81387080661170    1.01792398739067    0.18263956763211
O           2.09917639557022    2.81054109443658   -1.44087119131968
O           0.41097909562706    3.01318636041839    0.29071009695796
O           0.11071335029603    1.38714810373691   -1.46538392575868
H          -1.08094058607659    1.28944681403299   -0.45765689790391
H           1.05062484721022    3.71477464875602    0.31955638594330
O          -0.02218642784258   -2.10467417923327    1.64455793379776
H           0.00911083321878   -2.58971900601866    2.46909988400140
O          -1.83228050476848    1.13965614757039    0.18400056638922
H          -2.29263136023723    1.97791464076359    0.23664624432422
O           0.08611488932284   -1.15378636013501   -2.20515620003956
H           0.12955545626942   -0.17465848614098   -2.15593139187394
O           1.92930695739747   -1.60416321563897   -0.39545031011739
H           1.43624461282243   -1.95607233310177    0.35850334953604
H           0.88478637674835   -1.45133476389191   -1.69524431227426
H           2.06582538999483   -0.65708120923497   -0.19615085149561
O           0.08639033657626    0.44187244938394    2.06018216273849
H           0.82607464823781    0.70701426120991    1.46674757219221
H          -0.70283405388683    0.80755925465905    1.63038881870191
H           0.06119412262906   -1.12972985171010    1.88415988862232
N          -1.68506467411602   -1.51532510855835   -0.39573732967297
H          -1.97928708451792   -0.55271762113231   -0.15469415587102
H          -0.96778920597894   -1.41857203759451   -1.24478612205656
H          -1.15092784482994   -1.90618620557362    0.40854759554721
H          -2.47877976276244   -2.09755439997417   -0.63557613929236
