    26
        -50.46365770  Gyration_radius:  2.44724691449 Dipole_moment: 8.571
 S           2.41051913020864    0.28145233083556    0.17712947792993
O           1.48942502412204    1.28771275320728    0.69202321736648
O           3.70077737927072    0.27168993387272    0.78167573396473
O           2.64791393468639    0.67346411306042   -1.36753069327505
O           1.74270957226516   -1.02052722346673    0.09165924177738
H           0.86529505007498   -0.92469956035924   -1.19904761416820
H           3.48144429496293    1.12019424773135   -1.27860743716845
O          -0.19856980820096   -1.79206032039654    1.71654092527505
H           0.64363099520021   -1.66309916521157    1.22963768775995
O           0.23406446407286   -0.86513609053897   -1.97151462893947
H           0.76537361764832   -1.04250964032331   -2.74845077787691
O          -2.38921536148869    1.16915844866554    0.24443461837467
H          -3.08015716143805    1.81771791880060    0.11004849978793
O          -0.29913239063330    1.73328674182047   -1.16347920736284
H          -0.13018192151992    0.94428760209313   -1.70219049815459
H          -1.60111127418902    1.47438368185618   -0.30398837435050
H           0.41004339063324    1.71256034266802   -0.48063178034799
O          -0.52621834249849    0.72395797869523    2.37783506762494
H           0.27146905328936    1.02622683517321    1.90078089450927
H          -1.27359226790078    1.01304446191635    1.83628719288932
H          -0.33354129852043   -0.92831236569088    2.18795532049074
N          -1.79629702186460   -1.41611147842999   -0.24494842625800
H          -2.51033574266500   -2.11787086016368   -0.40041298836998
H          -2.21198851223142   -0.47938409817004   -0.05865718264212
H          -1.15174232983061   -1.66484591868384    0.63111766914956
H          -1.16058246345032   -1.33458067896207   -1.05766594798296
