    26
        -50.46365763  Gyration_radius:  2.44735336213 Dipole_moment: 8.570
 S           0.99289247542722   -0.27130223474587    2.20514790000366
O           1.07202589057571   -0.62188783183228    3.58397388418035
O           0.87357837955269   -1.39451948467628    1.28300173711370
O           2.39925452956393    0.42713441055988    1.84403252393369
O           0.01109566669473    0.76466409488215    1.87159495353652
H           0.62416554317260    1.49965946085290    0.63493647768327
H           2.93120491174030    0.04984573088586    2.53464148714801
O          -2.34835998358135    0.26408172080795    0.78235170283456
H          -1.59991363854593    0.49864885261377    1.37211888256693
O           0.95020553095059    1.93551130278349   -0.20315562902397
H           1.59414949142543    2.58474904190385    0.08177030440978
O          -0.41084064536134   -1.11041888444627   -2.39480117215345
H          -0.20098140344415   -1.53799904725654   -3.22500240334137
O           1.73175697152917   -0.58638055892640   -1.05180682439870
H           0.46469626119822   -0.97240464398801   -1.91580808173848
H           1.70226241997593    0.36806995982245   -0.88041723502757
H           1.52194756064261   -0.99230291012291   -0.17955283678197
O          -1.43326890037643   -2.09536393406415    0.09594410411798
H          -2.21389428527220   -0.70352971931246    0.60329888397438
H          -1.17643802790954   -1.98665514949298   -0.83013771754398
H          -0.60557544427733   -2.00065828815533    0.60706355697353
N          -1.38276461277737    1.19795498618512   -1.39425421877558
H          -0.51668043504843    1.67341482283273   -1.08566590920216
H          -1.88954937279802    0.84102699159382   -0.46673168725710
H          -1.97511177045595    1.81779905497141   -1.93408550539465
H          -1.11585712257806    0.35086224632005   -1.93845718781540
