    26
        -50.45568732  Gyration_radius:  2.56658032566 Dipole_moment: 1.974
 S           0.97634078259483    0.18674680451575   -0.18709541523628
O           0.87756043167525    1.63303448705210   -0.12252651129718
O          -0.13132290408447   -0.37434938007997   -1.00142833461519
O           2.28312211743220   -0.15576691973211   -0.92961388771971
O           0.98805867745238   -0.42909058667048    1.12687863502778
O          -2.85358754606872    1.13687499967468    1.08477535645377
H          -3.22362005992877    0.31916587919392    1.42190920761717
O          -0.63448840532838    3.10940251480294   -1.61172700631907
H          -0.18967027831031    3.25037132492510   -2.44945569414815
H           0.02477110241997    2.66708181588332   -1.01593975034770
O          -0.53706251376865    1.40002888301487    2.25455820252747
H          -0.09397296337048    2.16348919252331    1.87185608908165
H          -2.00383252228146    1.28835332475164    1.58892947437027
H           0.02188460270098    0.64263402711707    1.97782066915608
O           1.49931792776779   -2.50911177701379   -1.51268625171142
H           2.14555889752143   -1.11069626844878   -1.22190136255580
H           1.55466113795773   -2.95064330219618   -0.62547189766228
H           0.61940508796028   -2.11155209804234   -1.55380436036698
O          -2.10351346765023    1.05888766891638   -1.33235407400644
H          -1.65462592576660    1.96215532533912   -1.51884377270719
H          -1.26843316768482    0.39044344317131   -1.23155209346356
H          -2.49662603112902    1.11818208518721   -0.37721779930188
N           1.55041225618067   -3.21950939453399    1.06954734163606
H           2.44833344742157   -3.44079620310005    1.48099689131202
H           0.85170596759543   -3.78522439145018    1.53468236713969
H           1.34962331819448   -2.24011146625813    1.27966398743051
