    26
        -50.47044416  Gyration_radius:  2.4660032924 Dipole_moment: 2.882
 S          -0.64188840306334   -0.71750370071653   -1.48266062327711
O          -1.33478296813245    0.48037538493321   -1.04086899016298
O          -1.40322115699477   -1.92936444487516   -1.34539334606409
O           0.69228037341217   -0.79567221326652   -0.88834062244604
O          -0.36773529762028   -0.54068085386410   -3.04334783621766
H          -1.07488395627800   -1.03091256504985   -3.45035423666851
H           1.00482461972611   -1.96610362615579    0.33901017527341
O           1.68356104523373    3.00378926913900    0.40312333058756
H           1.16709714763991    3.79367959616767    0.57159025724384
O          -1.70920183018491    0.66374436389887    1.62488643046135
H          -1.83813733915073    0.80804830160616    0.67088039515028
O           1.07238807360070   -2.46075717380371    1.17884731860135
H           1.24492015402003   -3.37259944886128    0.93976640428775
O          -1.64979128697140   -1.96851398135842    1.35772609626296
H          -0.73613110625487   -2.24239072792642    1.54309296274013
H          -1.86365992853681   -0.30460122573795    1.73042235122565
H          -1.74812424561114   -2.05273764701984    0.39382523264443
O           0.71135021985064    1.94553991607904   -1.84079570605987
H          -0.12960732314578    1.52802408494612   -1.56815489405226
H           1.19664586893351    1.24789017859223   -2.28635380225289
H           1.42450514828319    2.69959047686086   -0.49899027931399
N           0.88041471758495    0.64626448705510    1.36325184511749
H           1.27777339398708    1.59864609419132    1.17514491602941
H           1.40247650094725    0.13481123908556    2.06782437372083
H          -0.16460495352405    0.71962087596774    1.62240061767302
H           0.90353251223303    0.11181331008042    0.46346763952323
