    26
        -50.47044450  Gyration_radius:  2.46599024953 Dipole_moment: 2.886
 S          -0.06866389889339    1.76929841655420    0.01138498518807
O           0.15710355419736    2.42640144175988    1.27004188601096
O          -1.36005152171028    1.11362819090254   -0.10117528439621
O           1.01086461501470    0.86125521872560   -0.37535499832419
O          -0.03616175431094    2.91395033356927   -1.09821904060760
H          -0.26601387409250    3.69996876115110   -0.61295596113270
H           2.06149824126654    0.21918310123667    0.83324720962256
O           2.46623878706924   -0.30294786327240    1.55302236388424
H           3.19200700282266    0.22363306638941    1.89108899769356
O          -0.68001633292460   -2.18338158315832   -2.60494541622219
H          -1.57986070668223   -2.49484223973480   -2.71578905295067
O          -1.66826066400890   -1.08297942013524    1.43518857981220
H          -1.89513267401149   -0.29970592398556    0.90370599922373
O           0.09885587871950    0.24784439798308    2.88884664318946
H          -1.14474104130591   -0.70664792611575    2.18125427132457
H           0.97345669110787   -0.09464152596327    2.64029568890890
H           0.04525295980463    1.12766073966817    2.47795749794142
O          -0.80861794527682    0.47865723564154   -2.60453220873623
H          -1.15902519705862    0.70666296050984   -1.72074548873294
H          -0.71136619243807   -1.20883062178654   -2.75511344716727
H          -0.00346868085178    0.99406790761087   -2.68789759003031
N           0.28873352790856   -1.71106999617195   -0.16264169316612
H          -0.03994324410311   -2.09462200983690   -1.08179246129550
H           0.62170027001443   -0.73278432353266   -0.33009103872060
H          -0.53904706755869   -1.61540437030689    0.52276489801468
H           1.04465926713977   -2.25435396773935    0.24245466063835
