    26
        -50.47044462  Gyration_radius:  2.46601147935 Dipole_moment: 2.874
 S           1.48015881480485    0.18884680049522    0.95169106821338
O           1.86148645851033   -0.91312913606571    1.79261993874793
O           0.34449769729880    0.95185869654371    1.44012623396194
O           1.29218791783491   -0.18374834600608   -0.45014905472051
O           2.72641657171761    1.18303963937158    0.93052801343369
H           3.17704773106767    0.99125905873808    1.74660566938435
H           0.95926898451499   -1.82754039433109   -0.85506271942813
O          -2.02509330672442   -0.33446905516809    1.33876626613185
H          -1.33993724344687    0.30027940643056    1.61293383896430
O          -1.59857926864276    2.32636179142272   -2.01273992843666
H          -2.25791603935295    2.89669253505303   -1.61395595066464
O           0.53944546721914   -2.69463913519213   -1.01757285973313
H           1.25224744127676   -3.33347360031863   -1.06354834421924
O          -0.39538358700285   -2.40597659092795    1.57702065480917
H          -0.22548157115887   -2.72655710863382    0.67565516099990
H           0.42547689934102   -1.95856469590676    1.84512498060244
H          -1.62807044199601   -1.20833388110403    1.56543339896954
O           0.62326470881424    2.63674465531098   -0.57445158124197
H          -0.74422003988098    2.55490157852106   -1.57525839815375
H           1.45456390869447    2.29254997440559   -0.90803245003459
H           0.45616284854705    2.13061370124345    0.24514819964144
N          -1.29411320065307   -0.18302851224574   -1.15482439747436
H          -0.26393151508596   -0.14605203105205   -0.97303225570696
H          -1.56807159047047    0.72300165971657   -1.60668976024748
H          -1.50046858881553   -0.98996271275192   -1.73526455215745
H          -1.75095906643401   -0.27067430757026   -0.18107115164945
