    26
        -50.47044439  Gyration_radius:  2.46613069679 Dipole_moment: 2.885
 S          -1.52651953775617    0.16127713651118   -0.87787686585008
O          -1.48916826255521   -0.93390200553950    0.07573500164815
O          -1.53572602270512   -0.24996669648258   -2.25545512269010
O          -0.49609397824713    1.15301712524575   -0.57127907699631
O          -2.90017469835965    0.93419182049052   -0.63664389963909
H          -3.47564486987913    0.57865629470391   -1.30624641943909
H           0.88413649476401    1.28733020823346   -1.59678439588659
O           0.83788511814041   -2.29684472133947    0.15654640255826
H          -0.11018667699882   -2.09887168452864    0.25415981992676
O           0.63989497354141    0.56488875411557    3.36037208920744
H           0.52875588754685   -0.16467361865616    3.97219643511949
O           1.74351369935001    1.16827443517907   -2.04614702214791
H           1.68463672943896    1.65313367456488   -2.87064610959633
O           0.89558135268368   -1.45373623809914   -2.35131016979101
H           0.98666445321732   -2.21879124180648   -0.81529807609966
H          -0.02597421134269   -1.16423270258325   -2.46439431143206
H           1.41929894851285   -0.63528994235061   -2.35266430255639
O          -1.67358558730018    0.80084521323405    2.05874307655148
H          -1.84275177969529    1.58092836785247    1.52617273200456
H          -0.25681013487132    0.74570816439381    2.99079000303171
H          -1.66991423065558    0.06026613502345    1.42056709286738
N           1.50621642663617    0.11363765747984    0.87584446334638
H           0.73555671037678    0.60560959605901    0.36611118205394
H           1.37206680270565   -0.93311681775830    0.65002344845337
H           2.40023336393554    0.45459859499242    0.53654668143197
H           1.36810904935689    0.28706249076203    1.90093734401247
