    26
        -50.47044457  Gyration_radius:  2.46605223632 Dipole_moment: 2.881
 S           1.34283804773239    0.97674599339451   -0.61096947498870
O           2.48155763274675    1.13510777544468    0.25230195322890
O           0.17351201032665    1.73892900882732   -0.20843527304819
O           0.99124491102108   -0.42028458137485   -0.86360225029601
O           1.78625682716800    1.53490992985117   -2.03717709752491
H           2.48425969127103    2.14734740343257   -1.82834840953583
H           1.49845153958057   -1.63800060089185    0.24804085260947
O           1.58787347605148   -2.24827654129022    1.00574304907673
H           2.48332817775346   -2.58791533334675    0.97249485008626
O          -1.03554669580619    0.87199966282191    2.04247811965529
H          -0.75718149126848    1.46836008977713    1.32528917829654
O          -3.10018477540675   -0.57160238222953   -1.44245003239868
H          -3.81391939020009    0.03606914711619   -1.24165182095083
O          -1.09530349901782    0.91649702323013   -2.37384272516713
H          -2.42140370238095   -0.04105059063435   -1.92329531999697
H          -0.34822416692281    0.49207640513960   -2.80107184184470
H          -0.71767858859670    1.34188266297979   -1.57869233857579
O           1.44035736637821    0.06906065572995    2.52131477410694
H           1.92531948751958    0.56856995297140    1.84220343712933
H          -0.18461010717111    0.62720439911406    2.47675776188846
H           1.48800329169946   -0.85815659310326    2.23481177674187
N          -1.25838946066256   -1.13879622793719    0.40457228817937
H          -0.41084002434010   -0.91765440921134   -0.16852443355192
H          -1.29143359195539   -0.37651274306335    1.16762969272225
H          -2.09413568115315   -1.06240937454365   -0.22461081933552
H          -1.15415128436642   -2.06410072223178    0.80903408347124
