    26
        -50.45339374  Gyration_radius:  2.62131232669 Dipole_moment: 6.429
 S           1.08584899931137    2.11504273038949    0.20703710512659
O           0.36010670425812    2.06970424359767    1.47917007644088
O           0.36249677830919    1.45107446720812   -0.85424952984906
O           2.44670161982848    1.63233414667782    0.36108151578942
O           1.19072495837838    3.64186712756170   -0.19563640951834
H           1.82770669839496    3.96479272929066    0.43366971857024
H           2.65597705339942    0.00535585030324    0.59392768265989
O           2.47354310510878   -0.95217344851233    0.75701799495257
H           2.11899433718196   -1.28538943552095   -0.07793569723032
O          -1.24932438818219   -1.89264354515090    0.51391804519198
H          -1.22911561407728   -2.85040191632396    0.54311488381006
O          -1.32534324360256    0.05456762545102   -2.82447697671270
H          -0.87906933349403    0.83166611685264   -2.46738994473919
O           0.48087747206356   -1.12210265124794   -1.24887655055400
H          -0.05499110679956   -1.07825786082413   -2.06658922392003
H           0.55907881381357   -0.15890032020790   -1.03970902077253
H          -0.58959132678539   -1.62230542391201   -0.20131512716246
O          -3.26859732367941   -0.57162412029178   -0.91617741561040
H          -3.94292222417875   -1.22296068138828   -1.11412360131182
H          -2.64389832583009   -0.98327001511450   -0.29724917948640
H          -2.11304462167690   -0.05694125113327   -2.26607688414161
N           0.33233026566042   -0.40784369239385    2.16332497322595
H           0.26131661138982    0.64447291891344    1.93395364591634
H           1.24909131213844   -0.73022973805114    1.71038474705188
H           0.33518375861040   -0.55188567098732    3.16711497961782
H          -0.44408097959233   -0.92394818520098    1.70609022267141
