    26
        -50.45339386  Gyration_radius:  2.62098465273 Dipole_moment: 6.430
 S          -1.46821765647765    1.52419606601254    1.10155781936104
O          -2.03665168377117    0.24832385589265    1.54420719682187
O          -0.91726798350206    1.43895061579198   -0.23243698272821
O          -0.52791213304780    2.04715461444139    2.07675872942447
O          -2.66958881860936    2.55234337001783    1.03617305473371
H          -2.84659976018927    2.70204655606398    1.95936485763938
H           0.93120504525110    1.27513764952555    2.21651731241565
O           0.10722562785932    0.98955412656322   -2.95804524871818
H          -0.48156531405093    1.40217341221919   -2.31492367194476
O           1.02922053130099   -1.97962093477626   -0.65842593595678
H           1.87230644676523   -2.43045834255600   -0.72566349861515
O           1.65911695947989    0.61458408358190    2.11348615398543
H           2.01281929861652    0.76765236560085    1.22728932592682
O          -0.60701363097819   -1.71223635975794   -2.92129866315403
H          -0.14176416447303   -1.90786687080199   -2.09184126725979
H          -0.25391373979220    0.09641691935517   -3.08671680312209
H          -0.26432032207661   -2.31022860694450   -3.58692960291572
O           1.49049463667223    0.56585125527005   -0.71362060271242
H           0.62379584943834    0.92942973793672   -0.40664113401956
H           1.23645832129595   -0.99280222866149   -0.71362082069052
H           1.43514938350063    0.77099810560713   -1.66890104327061
N          -0.03692115733282   -1.35092830319825    1.76954508211945
H           0.21333104638102   -1.78367865997229    0.85942607279837
H           0.73133129835719   -0.64499757600994    2.01692151143435
H          -0.93504935058545   -0.76186715985219    1.66344809328801
H          -0.15566874001121   -2.05012768132249    2.49437004516045
