    26
        -50.45339383  Gyration_radius:  2.62102431269 Dipole_moment: 6.429
 S          -0.67389446096041    1.32486288978046   -1.86632039616781
O          -1.22208069166958    1.08048017205181   -0.55096260057292
O          -0.30708102473319    0.08128682783819   -2.54881925907224
O           0.43147318465617    2.26656995433528   -1.85972198906080
O          -1.82557495188017    1.98637367344741   -2.72688928533681
H          -1.34580417464864    2.29099260882064   -3.49047248915890
H           1.71454240394056    1.92653411750965   -0.86853877586504
O           2.32554228868235    1.45841748142847   -0.24854172136222
H           1.88424578873070    1.49133284829398    0.61056120758380
O          -2.31627818779915    0.29818696546966    2.07049698934184
H          -2.38081735185052    0.68680257160009    1.18995486650796
O           0.85261864172368   -1.76269738426414    1.25556270065624
H           1.49290498789041   -1.99658148862571    1.92928067850724
O           0.26741051213994    0.73931733814938    1.56000761374141
H          -0.50016102099263    0.70565678160613    2.16613080964434
H           0.62043535078812   -0.79329774950203    1.41735739678275
H          -0.19200645595084    0.93865894833255    0.70749451179239
O          -1.85330953566260   -2.41742847918972    1.59920660269344
H          -1.89973975742780   -3.04631644187327    2.32062907575865
H          -2.34092171405250   -0.66165869387939    1.91957701890135
H          -0.91497374969160   -2.30242672315717    1.37780212137318
N           1.65339999663959   -0.88786275031175   -1.19808681526419
H           2.08243559328300    0.02137320747646   -0.82550636951130
H           0.81209964581731   -0.57558464910481   -1.79781129529557
H           2.31275810808546   -1.41464647888989   -1.76031555190649
H           1.32277658491783   -1.43834554735708   -0.38207505472526
