    26
        -50.45339371  Gyration_radius:  2.62106265226 Dipole_moment: 6.428
 S          -1.43030359516245    0.48963918683037   -1.84620281625926
O          -1.32042996521357   -0.61318999234291   -0.91770091096214
O          -0.13267351414629    0.85769567423891   -2.41852565636558
O          -2.10365517241917    1.64655881002310   -1.28336183558001
O          -2.32584864415916   -0.01290924476472   -3.05040863648468
H          -2.51137523820360    0.80158755462633   -3.50674244928056
H          -1.49267583109519    2.27216042646360    0.12371312338333
O          -0.81669553432338   -2.87254740914495    0.90331555525457
H          -1.20383704577973   -2.46624037657739    0.11869772727436
O           1.89964866033840   -0.15541918551649    1.33335928152128
H           2.26546186063549    0.06628862876259    2.19101950021616
O          -0.90427367642373    2.44349598006820    0.89909446088604
H          -1.03983116927700    1.68932683295610    1.48793357875944
O          -0.67168414365297   -0.29488665219778    1.58609062179528
H          -0.81281134873581   -1.23897838850222    1.80149603542092
H           0.90188124383447   -0.23340575766764    1.46842528874721
H          -0.96240246692561   -0.28618382749138    0.64111888364990
O           1.93748038271050   -2.81090043045812    0.43075644326209
H           0.11474675524520   -3.02282068941575    0.66995139502920
H           2.03424292866420   -1.86816646927489    0.64208233551173
H           2.53512313332989   -3.29299895924306    1.00395992341536
N           1.23984734734479    1.79145005044929   -0.45596512119664
H           1.69783096888337    1.03451199512890    0.08764968911130
H           1.90366077836868    2.50774962137655   -0.72914518310391
H           0.75218612496414    1.37820497968107   -1.32564009949979
H           0.44638717116351    2.18997762208391    0.14502886554288
