    26
        -50.45352384  Gyration_radius:  2.57387141967 Dipole_moment: 4.219
 S           0.22763785831642    1.23784522095190   -0.63803763795124
O           0.82073098556244    0.69333560294966    0.55883341968069
O          -0.96715172289007    2.10036656808077   -0.30427506356926
O          -0.13773815826175    0.19663152715849   -1.58363696128179
O           1.18499171632197    2.21495186868512   -1.31464237655662
H           1.73356484569924    1.65273237785323   -1.97983790245873
H          -1.15078309150982   -0.93968094674116   -0.98886631645892
O           2.33294197288675    0.50624141565692   -2.75932923682918
H           1.49919012368372    0.03358182916439   -2.87158492686676
O          -1.80952280850276   -1.51779895144672   -0.53579658775470
H          -2.25127774923420   -2.01834475351568   -1.22411382107761
O          -2.15722500053558    0.12395801370627    3.08426504867896
H          -2.71315546984530   -0.41653835765443    3.64726513227639
O          -0.32572952992736   -1.37808534328019    1.86834513734731
H          -0.83245140408616   -1.71679020089931    1.11838596938312
H           0.20749002135826   -0.64784770209867    1.50672847586493
H          -1.40812551522049   -0.44836383165278    2.79138866122471
O          -2.82241263914327    0.72728626629809    0.60438848280806
H          -2.63004968038533   -0.15138848723826    0.21865107527219
H          -2.65408604068846    0.63534315277318    1.57765717142158
H          -1.79956166716681    1.55565775326738    0.09798418799686
N           3.19091709359863   -0.56399062260166   -0.48521450619460
H           2.80612399491825    0.03989029625369   -2.01255583591673
H           3.17542853690918   -1.56293345353824   -0.32063664042389
H           4.05597235458105   -0.20471303747492   -0.10111402013658
H           2.42428096354978   -0.15134622467043    0.04574905152390
