    26
        -50.45352389  Gyration_radius:  2.57391439826 Dipole_moment: 4.221
 S           0.86266778234841    0.14250068147221    1.10750460132497
O           0.17951832775013   -0.56222083554183    2.25621204474972
O          -0.01999568582489    1.10519023600124    0.49516365968087
O           1.36914737232356   -0.81873432211990    0.14245471443054
O           2.03935363882895    0.84465535002184    1.77943335717945
H           2.77818887463731    0.89700114317460    1.06467817590377
H           0.21465547435391   -1.63846526031845   -0.67387797296983
O          -3.65471485830276   -0.39795934213453    0.81674024511018
H          -4.48372821291931   -0.72133910502747    0.46131001422517
O          -0.56875567374355   -2.10902541820206   -1.04572445993223
H          -0.23609599020207   -2.90932813878116   -1.45600408847037
O           3.54650613653848    0.82475848019117   -0.23370565737766
H           3.20229632530095   -0.03971721996442   -0.48930322322641
O          -2.01513011671688    0.31934381450038   -1.15458515053051
H          -1.34325566188832    0.75429994738116   -0.59983579071962
H          -1.63067302637705   -0.53404620639637   -1.39510963251423
H          -3.15784180441743   -0.00097043392394    0.06175407204991
O          -1.66099624216417   -2.00938629898599    1.43692014971206
H          -2.46110673623785   -1.42850538855518    1.35669896724846
H          -1.37686329446067   -2.19625387437283    0.51920275710492
H          -0.62996218451676   -1.20007555694545    1.95729030523142
N           1.74481319801188    2.41464738044440   -1.36475834886580
H           1.00421758314612    2.08244260269533   -0.74744143530290
H           1.84483764657351    3.41053740016784   -1.21266233438579
H           3.02076340670758    1.48929586835531   -0.76381776825046
H           1.43215372121400    2.28135448687606   -2.31853719141267
