    26
        -50.45058849  Gyration_radius:  2.41627770753 Dipole_moment: 9.417
 S           0.80510258892125    1.33056511053523    1.56793512933283
O          -0.28591305543319    0.90115031815241    0.66630529285288
O           1.12798177034083    2.71226454267919    1.41024632566844
O           2.06201471159514    0.47336389426612    1.03391925149822
O           0.57942105088475    0.83692665397736    2.90710398918246
H           0.42024971633587   -0.63312849781430    2.41701056388091
H           2.15436200848602    0.73718290564127    0.10705089195006
O           0.50256240683787   -1.56801820287587    2.06569368286362
H           1.36013935548689   -1.85629169639821    2.38729486276624
O           1.94545033369242    0.58089615641469   -1.70142241096746
H           2.61226766185932    1.14083405177675   -2.09965001159536
O          -1.98676296888105   -0.96346380555789   -1.50079439408800
H          -2.58718036978224   -1.67887396924825   -1.71547858826412
O          -0.47464932974388    1.51634366393748   -1.84870296002751
H          -0.46586405716713    1.48483802099748   -0.86084406141583
H           1.06429486110312    1.02214041032814   -1.87395936791696
H          -1.09773496425523    0.82884417391679   -2.10874180249513
O          -2.73218453932779    0.08173955844005    0.77067395235230
H          -1.79973679177330    0.37242455587300    0.92914031108567
H          -2.34654103843833   -0.54565511609138   -0.66793143911853
H          -3.26259548747717    0.87789982757806    0.83174912790163
N           0.48780840964724   -1.54356522009030   -0.55685600487259
H           1.14787398531265   -0.83821595821786   -0.91368951301921
H           0.77023981626909   -2.47337817043350   -0.85181462017311
H           0.47224401621636   -1.48206716094117    0.52464998533492
H          -0.47285009070575   -1.31475603684772   -0.91888818271000
