    26
        -50.46082860  Gyration_radius:  2.51107916594 Dipole_moment: 4.656
 S           0.13714743870728    1.92593495024273    1.59554458407336
O           0.89535309803973    1.64839214810722    0.36906177540295
O           0.74606723804054    2.86116293983888    2.48407516584325
O           0.21744288800337    0.50263551020427    2.39510300927727
O          -1.26851294253954    2.12131110750051    1.31635917108493
H          -1.98107319114714    1.09170863294413    0.36372464878124
H           0.25316738228895    0.87674582963096    3.26809777934764
O           0.52603452861221   -2.12094065286189    1.48065347851696
H           0.25201369594678   -1.38501129360913    2.04460562001983
O           0.63645846608051   -0.99471864628752   -2.44789261123249
H           0.84920330496058   -1.08227144380435   -3.37705782684538
O          -2.42078949534331    0.48020884137241   -0.28950879912819
H          -3.36159477425560    0.63974454893471   -0.20364165485497
O          -0.41821800197613    1.31169170504897   -1.94951363028788
H           0.09118643188808    1.61183236111136   -1.17068713211310
H           0.21273132732437   -0.08720519272726   -2.33740599958966
H          -1.29332812353280    1.09258734169964   -1.58622416845881
O          -1.21113221298590   -1.97490796875424   -0.50576398521421
H          -0.20512542794420   -2.23611454480110    0.82299962964386
H          -1.71982463786007   -1.15236690927914   -0.38920181221822
H          -0.66219107562188   -1.83210127350776   -1.28877317000354
N           1.97701585502721   -0.66665373821598   -0.12456950563485
H           1.63862570815451   -0.88613731411242   -1.08526371905206
H           1.61051659439535    0.30248214210823    0.12260140537726
H           1.51048435032981   -1.35217898443297    0.56079514695228
H           2.98834158540339   -0.69583008633953   -0.06811740969523
