    26
        -50.45452907  Gyration_radius:  2.51075712831 Dipole_moment: 5.106
 S          -1.16997025822099    1.00906332306536   -0.64689672068847
O          -0.90883171364607    2.30305983443618   -0.10673266032777
O          -1.25702296690088   -0.04967965135950    0.47176431873805
O          -0.18006161774303    0.56476331196864   -1.61090763664438
O          -2.56330408524557    0.95834926293117   -1.25481549167712
H          -2.83364359371840   -0.03268188705732   -1.30359743351791
H           1.38222836962367    0.78528468886038   -1.13604924026212
O          -3.06650628291699   -1.51702726140927   -1.17246419879534
H          -3.23166662916950   -1.63402691713619   -0.23325107821871
O           2.26423995160469    0.78270849562949   -0.69798171034447
H           2.91733081429488    0.86568092833147   -1.39470562601118
O           1.33099758561953    0.48042024870147    3.16205347588420
H           2.11376160547972    0.56529921267490    3.70801185008133
O           1.01910748035266   -0.99737611426696    1.00383465164864
H          -0.33654216397842   -0.46293483604474    0.70362179895726
H           1.62461219401123   -0.49801239709908    0.42846106981950
H           1.14211310214970   -0.60756256334722    1.90506106445643
O           1.36719747767136    2.44779619294104    1.37904692295633
H           0.49580317831972    2.59139529891593    0.97315716154008
H           1.28274587179438    1.30370181354691    2.61725360873928
H           1.89936363215017    2.03335241498059    0.68439099781184
N          -0.55406575896323   -2.26008844910927   -1.50558873697500
H          -2.15518572456495   -1.90792302715350   -1.34199027259724
H          -0.25460214065259   -1.31950151137016   -1.75602989039258
H          -0.07907133949684   -2.50726489484103   -0.64537122875350
H          -0.24902698781622   -2.89679550672652   -2.23027499532227
