    26
        -50.45452915  Gyration_radius:  2.51036142569 Dipole_moment: 5.109
 S          -0.28144979945687   -0.96214513604682   -1.34169867705273
O           0.79121210270945    0.11458372215625   -1.07758967744476
O          -1.42047719624393   -0.40032021526037   -1.99085647190519
O          -0.58619932169500   -1.61267881621954   -0.08052459999830
O           0.44132176792103   -1.92259028792393   -2.27353355743055
H           1.40166848207867   -2.01969243412887   -1.91842554713932
H          -1.55965191744706   -0.73674251328286    0.91887996802295
O          -0.69434934870997    3.39264183261286    0.03811698904527
H          -1.11807136856947    4.12934183830881    0.48047561481228
O           2.77269037880871   -1.92209149986928   -1.29827207369634
H           3.08440852006225   -1.05913899817845   -1.58321850685907
O          -1.98131704847771   -0.07599374470698    1.51522554998954
H          -2.50085269027017   -0.57131255007404    2.15051775703499
O           0.40076068469446    1.26236400431362    1.13383853762298
H          -0.42176646183241    0.86236761829887    1.46649560749634
H           0.66023536521543    0.59549110567348   -0.16989033602833
H           0.13459780856714    2.15484816368960    0.79921093998668
O          -2.58178119801743    1.64538977930336   -0.62222059850489
H          -1.42200012955863    2.83812951573921   -0.33595575757985
H          -2.27872160912988    1.01490367018671   -1.29703173470198
H          -2.62595922413260    1.13003900778146    0.19630541803333
N           1.96616215324758   -1.55095360989489    1.18887833164379
H           2.57365192381882   -1.83155627818196   -0.31621603380527
H           0.99160326649592   -1.73230337809123    0.95556994209646
H           2.22857432700729   -2.15299744673361    1.95848935963714
H           2.02571053296377   -0.58958336950158    1.50342958674370
