    26
        -50.44023254  Gyration_radius:  2.54347948874 Dipole_moment: 6.129
 S           1.71798762324215   -0.79255483351807    1.66061619218192
O           1.73078835775603   -0.14530289883980    0.37729320786578
O           2.90994544088220   -1.43824404074428    2.07402598240133
O           0.50958736671242   -1.79184793253702    1.65757500329349
O           1.26900646301545    0.21109520238590    2.74727199905742
H           0.33302429720619    0.47937837290994    2.50844117464260
H           0.35425030500801   -2.04420164639121    0.71150092237258
O          -1.17520014952344    0.75856349048417    2.12674535347973
H          -1.70223059781727    0.37014460604854    2.82794533109644
O           0.14232140091799   -2.43450561368131   -0.84588257500790
H           0.78332841407084   -3.13214105202633   -0.99377619333260
O          -1.09691215483619    1.38124983081533   -1.91047380826198
H          -1.60529391689304    2.08985482250208   -2.30582527994449
O          -1.92271951154165   -0.47952128610056   -0.07824613847915
H          -1.71615844956390    0.15862394787971   -0.78720884521629
H          -1.41061183976470   -1.27210074214351   -0.26898974236949
H          -1.44562255000331    0.28378643109395    1.29406283856087
O           0.36918624293447   -0.70726643348902   -2.84599034528120
H           0.34806510208507   -1.73395642513073   -1.51753831315339
H          -0.15727282901371   -1.00384951627303   -3.59102431599337
H          -0.04093754887724    0.12041734841961   -2.53084789912538
N           0.40887613935740    2.31519327482034    0.00399283583089
H          -0.11759068449963    2.39497477712887    0.86628068168722
H           1.01616489057605    3.12084186710279   -0.07137655094715
H           1.00158731698505    1.48659883015965    0.09553846743548
H          -0.50356913843041    1.80476959913061   -1.20410999279835
