    26
        -50.45452910  Gyration_radius:  2.51031437673 Dipole_moment: 5.116
 S           1.29840454914426    0.93655806130632    0.49639272057885
O           1.20513319629140    2.15536793083992   -0.23859685803903
O           1.23391774537184   -0.28325882147095   -0.44575389370917
O           0.26805239150337    0.77995078867267    1.50656393264705
O           2.67867940786724    0.79651877568579    1.11969807369814
H           2.81746764726964   -0.20234359593162    1.32197576940249
H          -1.25562535761698    1.12836649958173    0.98558288252992
O          -1.29000491735844    0.15021949098695   -3.21100693778805
H          -2.06267452373459    0.25185892388257   -3.76831580752755
O          -2.13442074476481    1.17354303820192    0.54333538243702
H          -2.76495660258366    1.44605818889266    1.21191083929452
O           2.85188844122657   -1.70644848213079    1.42090878600300
H           2.98808348958904   -1.98550894559859    0.51175651305748
O          -1.04318003781168    2.35970933134600   -1.75825678943088
H          -0.15728261084143    2.44986172525904   -1.36874680456981
H          -1.12518024931741    1.03462830181313   -2.80191799111174
H          -1.61976210242294    2.13437723549516   -1.01386744090556
O          -1.15165418681211   -0.99849532643932   -0.84460957045027
H          -1.68036174973348   -0.33963188281393   -0.36126865480863
H          -1.23201446639524   -0.74246946948994   -1.79717576153627
H           0.26486314894915   -0.60427477579852   -0.61840137814913
N           0.26822228367473   -2.05150778457583    1.84342249096069
H           0.09730972152417   -1.05256998548963    1.94339886215259
H          -0.10921637474177   -2.52379836424777    2.65458689632608
H          -0.24478639107667   -2.36360172314152    1.02728079283669
H           1.89909830279815   -1.94310913435900    1.64110395606366
