    26
        -50.45454420  Gyration_radius:  2.42329206416 Dipole_moment: 8.702
 S           0.99738552487477   -2.11389843977259    0.45077919508253
O           2.01987010157454   -2.83260741172566   -0.24132392166208
O          -0.01539309724808   -1.57468372018938   -0.50545461904586
O           1.67423608946485   -0.80853047001096    1.07985644543821
O           0.34257286519881   -2.73752532069170    1.56921142658917
H          -0.37149843440352   -1.36655888491967    2.01917608307319
H           2.12977857061665   -0.31677258427812    0.38796417058075
O           2.20597108909477    1.40026822718827   -0.48130726786786
H           2.92477212067112    1.96921994993025   -0.20491946418583
O          -0.79961403801166   -0.52223867021385    2.31357195112967
H          -0.61105042637190   -0.45867067391311    3.25136559702179
O          -1.84981992937129    1.51607839433464   -1.11396160444694
H          -2.64689171029461    1.93364162486551   -1.44081086726424
O           0.05972786398569    1.73879655491402    0.96695016775984
H          -0.12928964962685    0.91966912073926    1.46766155058408
H           1.44208597873061    1.58917296545851    0.13784577230663
H          -0.66730229134193    1.83458759957002    0.33568911368796
O          -2.42170921001647   -0.67489567242693    0.11887410316562
H          -2.25350074140078   -0.54660820479612    1.06404228798396
H          -2.14583809931035    0.67345532237784   -0.63965840459708
H          -1.64133364422761   -1.19609281361281   -0.16825414856743
N           0.36013920188286    0.33169714165893   -2.11369101417791
H          -0.49548129619610    0.89788676059188   -1.93017302427552
H           0.44659666616957    0.06858027021323   -3.08806503163307
H           1.19117179186729    0.83943922380924   -1.77075705790895
H           0.25441471368774   -0.56341029910467   -1.46461143877138
