    26
        -50.45568728  Gyration_radius:  2.56656885816 Dipole_moment: 1.980
 S           0.38876583594513    0.08236112813850    0.92988382386060
O           0.82449252805646    1.46033813932607    0.79912049853681
O          -0.99352376332625   -0.07745048295018    0.41160118181879
O           1.28009763397400   -0.84835538928904    0.26258584819895
O           0.33303402634954   -0.24499896552462    2.43516363980623
O          -0.19471626748845    1.22610616513696   -3.01190133567745
H          -0.34800193490496    0.41337948456793   -3.49691831337666
O          -0.70022673873154    3.47929804135948    0.26709276952869
H          -0.01888340913697    2.80518118200871    0.52509940984635
H          -1.11988676316813    3.76438631493267    1.08083056392703
O          -1.81472333837369    1.66701685326288   -1.11664488149669
H          -1.51737871755524    0.87964949562655   -0.44879761681371
H          -1.47404059061010    2.51116066617605   -0.64394668860482
H          -1.21399020500540    1.53387393176106   -1.94843058410183
O           1.98851683744722    0.83056226899327   -1.64067434059071
H           1.81427643681734    0.09653846645608   -1.01334280268034
H           0.68375659675984    1.11403718061073   -2.54828262452792
H           2.12445264439996    1.59252812847359   -1.06916813821195
O          -1.23543543044223   -2.22298942033647    2.08966118173569
H          -0.61779523257779   -2.88311447540842    1.67989006419595
H          -0.25900822159780   -1.05988400636335    2.47797904932694
H          -1.58855667930890   -1.70291238383892    1.35561992066576
N           0.67939474685442   -3.57952253672790    0.79789067264661
H           1.04326941763825   -2.66983540891861    0.50847884458112
H           0.54062549038675   -4.13660796944019   -0.03578537085247
H           1.39548508762763   -4.03074639805735    1.35299522825433
