    26
        -50.45484852  Gyration_radius:  2.48672301303 Dipole_moment: 8.989
 S          -1.81134759595496    1.17820659069710    0.46184087387063
O          -2.53856673185965    1.62962869504650   -0.68034809802497
O          -0.60843434662965    2.00457312512520    0.74536663667844
O          -1.18347016799603   -0.25163263141114    0.07441234083614
O          -2.55023211124260    0.91582104445165    1.67553301159227
H          -1.91327865817100   -0.34144093041866    2.44760985596182
H          -1.07009301887979   -0.23089318500120   -0.89772677609957
O          -1.34120201615957   -1.10803363585210    2.72660005194827
H          -1.49508548042923   -1.77394542210950    2.05190146874940
O           2.19614383992277   -0.33885895215234   -0.19814514294894
H           3.12531375985729   -0.11440775996296   -0.27112474880472
O          -0.70779103842124   -0.36783828889422   -2.55266562043380
H          -1.51604719129572   -0.67532515380002   -2.96512854436649
O           0.90812645654114    1.58232115027203   -1.34877142751574
H           0.32739412912053    1.91057580090753   -0.62355717648421
H           1.70081241934369    0.40644067647796   -0.67027706868468
H           0.30948401159507    1.21144561705440   -2.00937219863746
O           1.17240810061262   -2.18479179401085   -1.97121417209664
H          -0.09947837283968   -1.13476672423406   -2.45596076986206
H           1.89480167576779   -2.30262364655003   -2.59059946005169
H           1.52088644056579   -1.65289040304654   -1.22993753810877
N           0.76814816212182    0.31923330861973    2.07855125788537
H           0.21720197981350    1.12269865927477    1.59622663773838
H           1.36443353565379   -0.10479137535292    1.34517166681468
H           1.31684954709923    0.66295949956533    2.85903565003267
H           0.01302269186360   -0.36166424469789    2.40257930001503
