    26
        -50.45484849  Gyration_radius:  2.48750981734 Dipole_moment: 8.984
 S           1.37753455981021    1.72036629886113   -0.17159971496906
O           1.44418090842406    1.17784242922042    1.21095443514585
O           0.73818740821962    2.99475074679802   -0.23785810685110
O           0.40871787323351    0.67753293614075   -0.92163722277363
O           2.64589756681300    1.56262425055914   -0.84557050617494
H           2.75893897710927    0.08606186957082   -1.46951004250926
H          -0.49393128273989    1.04286317976368   -0.82170499465043
O           2.59245595201231   -0.85959571902152   -1.73571294545686
H           1.85567557180172   -0.80494869604032   -2.34926929462615
O          -2.13860345760385    1.45057425080678   -0.68598845394760
H          -2.31475044274820    2.04606428631597   -1.41557409685321
O          -1.03701880137498   -1.66223843706821    1.06812700388849
H          -1.36056598021949   -2.17239576616387    1.81247958585603
O          -1.07502477007240    0.80683887986674    1.82739514269772
H          -1.07603974150582   -0.69612765207294    1.36601887218407
H          -0.13185347354159    1.07295652081320    1.72492522244408
H          -1.56161122638616    1.33044676414621    1.17827567406260
O          -2.79288341256518   -1.12902592490379   -0.98878769596500
H          -2.09970387791253   -1.42484596876942   -0.36766235036102
H          -3.63101325789429   -1.42409001588828   -0.62829349221125
H          -2.48136896948119    0.56009694149036   -0.92515246581240
N           1.68080207490977   -1.30865218149567    0.68773118866677
H           2.04095511543844   -1.28038766191130   -0.31644550792640
H           0.69792993982704   -1.63403260552332    0.72374461590988
H           2.28467802188208   -1.86557077259304    1.28232312592690
H           1.66841472455800   -0.26710795291031    0.99879201431754
