    26
        -50.45568721  Gyration_radius:  2.56737298807 Dipole_moment: 1.974
 S           0.44363281367428    0.53312120195259    0.72765143968980
O           1.29042579586539   -0.63878276539390    0.60378938135903
O          -0.96680233622026    0.17441104980179    0.43294728431070
O           0.47196969103215    1.03943115254685    2.18362806922253
O           0.87858390752726    1.62629208629519   -0.12180730347302
O          -0.36674764215093   -0.49182492230664   -3.20706439973297
H          -0.55717419469447   -1.43146756258966   -3.20421112419619
O          -0.67010896861981    3.14261375000284   -1.53164603791722
H          -1.03777893376129    3.81686891419585   -0.95740024552718
H           0.02454492791983    2.67216796480212   -1.00129118443687
O          -1.86964397688769    0.91469918457241   -1.73254463999058
H          -1.31900543400387    0.35369229171350   -2.40533175864398
H          -1.53636367874576    0.57179240629632   -0.77017666425927
H          -1.49935728753749    1.86997724053520   -1.77794996971149
O           1.89041568210921   -0.21992077876814   -1.92809375909349
H           2.06820605490493    0.72173614843471   -1.84179317331263
H           1.74950371646923   -0.51603615170834   -1.00343221908573
H           0.53595656041186   -0.38769417859995   -2.79055346252016
O          -1.12190407869421   -0.77605628871114    2.99359186407547
H          -0.53091404024159   -1.57281653625230    2.96094721395085
H          -0.11964265253389    0.38617643661612    2.67294948987999
H          -1.51372552097399   -0.70330056017868    2.11321551572661
N           0.71205853017424   -2.66861030055897    2.51488445440456
H           1.45680518466826   -2.78567014342141    3.19029951171461
H           1.06182846343858   -2.05630768864071    1.77566384431901
H           0.52523745687449   -3.57449196063325    2.10372787324534
