    26
        -50.45484849  Gyration_radius:  2.48709315803 Dipole_moment: 8.985
 S          -2.02175796624339    0.77917070546137    0.43474574145926
O          -2.04332183043271    0.07266103239200   -0.87316898647309
O          -2.15827371389424    2.19391104694092    0.30411402520795
O          -0.52812832474330    0.50625600771155    0.96729165403142
O          -2.86229959907615    0.10310992680411    1.39608416511270
H          -2.05611043076183   -1.10824033764967    2.07783299203914
H           0.00502161938262    1.26106130514523    0.64435801109834
O          -1.36691535871958   -1.78285729813967    2.32842654739631
H          -0.67374344101765   -1.26641412024747    2.74693114649658
O           1.54584994857924   -1.04171019139014   -1.22516738931063
H           1.94907859730044   -1.42257665772464   -2.00705599857828
O           1.12135261048770    2.42529506826449    0.10777543600176
H           1.08244493085039    3.13212811023960    0.75338971478644
O           3.08933907684297    0.62326507764734    0.33890906502427
H           2.56015383762363   -0.07660526221150   -0.08988407344367
H           3.87491504552739    0.74388217759848   -0.19754753790236
H           1.92238372274527    1.88441326979753    0.29035529494328
O           0.12367152535567    0.94810553859738   -2.05673930440106
H          -0.77885552404123    0.70781708120241   -1.74251060145639
H           0.36604993887484    1.73997973266735   -1.56022279267869
H           1.00921384586825   -0.25063795856248   -1.55685000611154
N          -0.81952535194809   -2.07126192277051   -0.22563012368166
H          -1.42049501427307   -1.23169015294727   -0.56533909165603
H          -0.94817121281634   -2.07662024179293    0.83371505501073
H          -1.13135614835282   -2.94213249428109   -0.64117576358914
H           0.15947921687961   -1.85030943276199   -0.48263716932098
