    26
        -50.45484850  Gyration_radius:  2.48704191785 Dipole_moment: 8.985
 S           0.91955898870875   -2.00120008228027   -0.18022842803706
O           0.24950970523154   -3.03470302638370    0.54090715533987
O           1.77373931949144   -1.14964192734569    0.68890840333892
O          -0.21567388533205   -0.97812757161020   -0.68360633265968
O           1.62108820316266   -2.36435704877983   -1.39012557291975
H           1.49144992896404   -1.18815365567996   -2.47733499104423
H          -0.94289728258026   -1.05649330977161   -0.03302996873461
O          -2.27252515204205   -0.97104700454157    1.02290891981640
H          -2.86384764845838   -1.67198782653358    0.74540658305635
O           1.28213876760885   -0.33710181722867   -2.95139888669478
H           0.32826322291063   -0.35735573057879   -3.06060068520261
O          -0.15147725663902    2.09620721065375    0.74847317211050
H           0.02423783587940    2.85156406143090    1.31202674037170
O          -2.78008681323561    1.51251631803355    0.15775508246255
H          -2.61934785515407   -0.11904155255679    0.67456669349942
H          -3.26043672452253    2.10281627289863    0.74107227563432
H          -1.83961793994252    1.77089466100752    0.20819509294860
O           0.03803440284971    0.01561017311540    2.26814280321531
H          -0.09723260611268    1.28851890142858    1.35535808964141
H          -0.76324867309908   -0.51578477652983    2.17913872783057
H           0.74791609230005   -0.50471944214786    1.82511517617965
N           1.88108268166325    0.95874667775896   -0.74506314619601
H           2.75309947088548    1.47594819434741   -0.76792112728780
H           1.10640874464311    1.52663769379285   -0.35693679015019
H           1.63114122417933    0.57289646697548   -1.70808881182485
H           1.95872322863088    0.07735816052072   -0.11364017470372
