    26
        -50.45568717  Gyration_radius:  2.56730180757 Dipole_moment: 1.973
 S           0.19611509543495   -0.97299361344380   -0.15702174761374
O           1.58911202940174   -0.91922191784395    0.24592560023671
O          -0.24447415578654   -2.44937425691410   -0.10202720939976
O          -0.65557326289890   -0.24207877041732    0.81518394814840
O          -0.01696330692472   -0.45147921900873   -1.49427387976363
O           1.20011500088658    2.99799324227772    0.48140539802440
H           0.49325560685086    3.51681689997953    0.09371203286373
O           2.45456770346505   -0.19137328948363    2.57118546857474
H           2.37358451089578   -0.93533840271411    3.17078805989400
H           2.25492397342633   -0.54052395231066    1.66382260707469
O           1.93829646196261    1.31098330009433   -1.36609456714928
H           2.59110926463298    0.71893959332380   -0.97998535787386
H           1.17616464659498    0.72385496513802   -1.55833839103609
H           1.54338168951209    2.40466622417553   -0.24619691807887
O           0.47688611954379    1.37386913696159    2.28431295532904
H           0.78345938628471    2.10265316171341    1.61696692528218
H          -0.07283098773963    0.67719401637210    1.67813002309333
H           1.31571010762925    0.84338002103613    2.54223534172942
O          -2.71863457988087   -1.85250352390731    0.01855679877546
H          -2.88260150751133   -1.54399990755165   -0.91049955194803
H          -1.25067456934271   -2.39522639257260   -0.07296821923064
H          -2.41801736265984   -1.07338268350317    0.50482582269938
N          -2.65534655865957   -0.87836385116098   -2.47560932640558
H          -1.67533396078321   -0.65185135992565   -2.29678835350243
H          -3.11668370182412   -0.03258495826323   -2.78607073106107
H          -2.67954764247889   -1.54005445200512   -3.24117673867462
