    26
        -50.46085924  Gyration_radius:  2.53237770483 Dipole_moment: 4.728
 S           1.26610767278178    1.66118449143828   -0.04465475463799
O          -0.15170849951616    1.70011395512367    0.21811778952112
O           1.70380917957931    0.30828029323248   -0.43045228005051
O           2.07294092196009    2.17234624238254    1.04416643351513
O           1.53851198335464    2.58133602928874   -1.30107247714476
H           2.48586926154588    2.68303202094601   -1.30761805050801
H           1.13235422525880    1.77544168187126    2.38567283568388
O           0.40698991653271    1.33875181326897    2.88890065829385
H          -0.39119499186967    1.66754775813149    2.46057021358574
O          -1.25218936690639   -2.03859042231577    0.50978063314991
H          -1.96744956356908   -2.54794965607937    0.89189874039952
O          -1.70046456244166   -0.32617341496001   -3.01800504958988
H          -2.13390572057888   -0.93166695975194   -3.62048155014837
O          -2.23358961415952    0.13771490817848   -0.40335491036252
H          -1.67969268084973   -1.18466659765947    0.15149283591641
H          -1.55157295208030    0.80189138736418   -0.18468887510606
H          -2.20254192073382    0.06749311673040   -1.37922241388085
O           0.36388865172033   -1.58547228811577   -1.85325927112403
H           0.91569120565103   -0.88047058977876   -1.47020141744535
H          -0.12446871709586   -1.96944230449602   -1.11371111092882
H          -0.86681303692103   -0.76490838697171   -2.73451288776313
N           0.87890534084133   -0.95862823756081    1.68381450926436
H           0.01296488431160   -1.45902090812163    1.35509367760082
H           1.32581106067435   -0.52627668065559    0.81823627983323
H           0.63036977607645   -0.13026349823018    2.30495415018210
H           1.52137756647763   -1.59160374329032    2.14853631173017
