    26
        -50.45484844  Gyration_radius:  2.48732602098 Dipole_moment: 8.981
 S           1.81573189470820   -0.37893512889338   -1.20184070959630
O           1.57317373583906   -0.93424029825059   -2.49408721074819
O           1.73215178962126   -1.38827934813037   -0.11346014678739
O           0.58057298927277    0.60085616221841   -0.88050483779914
O           2.97886483119781    0.46144457191517   -1.03281559253626
H           2.65444536544690    1.65272526804679   -0.00391767534673
H          -0.17628995155128    0.23925394141204   -1.38522315881932
O          -1.46693978251497   -0.40570696445899    1.63151638214996
H          -1.91993440775621   -0.90540706053377    2.31276522507028
O           2.21890081712780    2.26354246379612    0.65176886741606
H           1.52519674251128    2.69459157117511    0.14657228615680
O          -1.63043062881542   -0.27157587202404   -2.10181405544364
H          -1.63047868550284    0.11287905944748   -2.97936848561290
O          -3.00650320645410    0.98920256835067   -0.18072773728203
H          -3.89141769937327    0.67586739798574    0.01495765471578
H          -2.42430412731013    0.64635503291843    0.52448325441936
H          -2.21850583284155    0.26927193897307   -1.52802131936890
O          -0.78205611748838   -2.12222253622750   -0.17351342008638
H          -1.10021149916020   -1.82112635818050   -1.03398559121337
H           0.19708755382278   -2.01574301704734   -0.20432983190419
H          -1.22207774596801   -1.08125994068842    0.91914240439196
N           1.23382097011068    0.14889034878876    1.86181381583028
H           1.57949554833669    1.08832382141699    1.49202845649720
H           1.52609434965540   -0.56582568290414    1.09675232055357
H           1.65453294071673   -0.07406402953079    2.75719919987842
H           0.19908014636586    0.12118208043584    1.90460989547322
