    26
        -50.45484852  Gyration_radius:  2.48723694757 Dipole_moment: 8.985
 S           0.13369954062015   -1.29749811750543   -1.78411424911790
O           0.11117967095270   -2.14694808237824   -0.56421216648546
O           1.40431477113970   -1.29287696103133   -2.43422700948995
O          -0.09037376345322    0.18335162139011   -1.19642912013939
O          -1.04051784319915   -1.53161749304904   -2.59297789160633
H          -2.27034804939191   -0.65210131460941   -2.04848841657545
H           0.80777969026634    0.53672448083576   -1.03295749962232
O          -0.08386257101511    0.42774607670261    2.18826655954969
H           0.00958319321101    0.26361094146023    3.12812046744319
O           2.26060389877005    1.30085963581358   -0.59114097557549
H           2.57601113498081    1.72931294009238   -1.38793814628747
O          -2.85477369254035   -0.03947154251614   -1.52314639491520
H          -2.47562917449352    0.83053488662492   -1.67014655484321
O           1.78865561017764   -0.93118503637940    1.03920876918479
H           2.29461989363033   -0.34696930050551    0.46040361284287
H           0.66597490992546   -0.08991180161119    1.74831030479192
H           1.28011425907788   -1.52144760275380    0.43589540903920
O           0.92070018489052    2.79105464115326    1.18597578729549
H           1.40607638530603    3.14443480419367    1.93362889083113
H           1.84263515329154    1.98310796152744   -0.01894962513828
H           0.41484315532093    2.02369880908032    1.51625629338413
N          -1.84598591905866   -1.07290761933821    0.67233817155317
H          -2.35635491230734   -0.58081723935998   -0.12529414306924
H          -1.06123130610491   -1.64156151605293    0.17990351239994
H          -1.36742730125363   -0.39068629015673    1.28783965358668
H          -2.47028690874250   -1.67843687163248    1.19387474095863
