    26
        -50.46797325  Gyration_radius:  2.47254084979 Dipole_moment: 6.430
 S          -0.79235716809923    0.80064987620758    0.12764665561638
O           0.57605029799414    1.11765478649716    0.53719212277566
O          -0.85705422268797    0.35298792016504   -1.25102506582883
O          -1.35612134496087   -0.19898312368015    1.04466950477290
O          -1.65455686474152    2.07091726753715    0.28602791788164
O           2.20546595839019   -0.96193262448338    0.59853754663471
H           1.27522458304790   -1.53282857457051    1.55966340384754
H           1.82027107464827   -0.05875078647286    0.57616989155103
O          -1.46711673766329   -2.71890701682394    0.16009283181585
H          -1.58080467847035   -1.77124776208158    0.38545029771783
H          -2.21835096248135   -2.95394612118421   -0.38631949348730
O           1.42690216988693    3.11672292626094   -0.97806711346280
H           1.20134140843545    2.35031872348253   -0.40840920454353
H           1.69428135616738    3.82152630230809   -0.38604624759583
O           0.69162994365374   -1.82501444459520   -1.36308971009875
H           0.19716933742321   -0.99432828454511   -1.50594369003247
H           1.87442524343410   -1.36794027423268   -0.24336831721484
H           0.04225367218550   -2.41926784588551   -0.95684472291447
O          -1.02560672450483    2.91207734741241   -2.04235108953000
H          -0.09772340789113    3.17020880137137   -1.86086097801239
H          -0.98551419347488    1.97028731288299   -2.26880494477726
H          -1.52396454376770    2.54444349418022   -0.59061692542967
N           0.36897102665632   -1.81559599268882    2.14464003272728
H          -0.00412903628882   -2.70222497203085    1.80493635328089
H          -0.33966765067713   -1.07068822663110    1.87119814656503
H           0.52898144378962   -1.83613869839915    3.14552280774082
