    26
        -50.45484843  Gyration_radius:  2.48748695033 Dipole_moment: 8.982
 S          -1.20213622557905   -1.59567928630897    0.94584445492981
O          -1.72005649272893   -1.27051998318524    2.23548685684712
O           0.23327556595508   -1.98129036533498    0.97933441181613
O          -1.18867245184278   -0.23005139113280    0.09524987585714
O          -1.95919787454685   -2.51042814151608    0.12251475475733
H          -1.84682180257035   -2.08433567323264   -1.42300564571620
H          -1.09607472894747    0.48664202979145    0.75560117512609
O          -1.61282071105893   -1.63457195252208   -2.28076967456648
H          -2.02833984378714   -0.77129368346320   -2.21463415831230
O          -0.84693926798850    1.86473900421670    1.71898438259557
H          -1.71836988900663    2.12948682933897    2.01639543021266
O           1.88763613874648    0.98104572725508   -0.67385883425250
H           2.82961024391526    1.15261584142471   -0.72120310960079
O           0.19717819441000    3.13998418775358   -0.39216753209105
H           0.73771199780283    2.36815566361814   -0.64892791820853
H          -0.58077410448115    2.45587547509724    0.97913184354195
H           0.80706496998982    3.86024264202283   -0.22271170349780
O           1.42440852029991    0.22056167517186    1.75109042981269
H           0.71518265857028    0.76044737215894    2.12236085661047
H           1.03155254760321   -0.67355163023033    1.61978395430568
H           1.71163062286526    0.70535975600145    0.28364986128311
N           0.87173952149265   -1.47606434161921   -1.43935360578563
H           1.52649905183004   -2.09916040826198   -1.89914138344101
H           1.24152449969829   -0.51074439122568   -1.37071753959269
H          -0.08194351165222   -1.49049877222962   -1.91787797107166
H           0.66713236101317   -1.79696618359514   -0.42105919155241
