    26
        -50.46085925  Gyration_radius:  2.53238311616 Dipole_moment: 4.728
 S          -0.66583144591778   -1.64296639090632   -1.10547332617673
O          -1.25850798923731   -1.16779544077375    0.12077296082940
O           0.57571340836710   -0.91443604724941   -1.41940680830864
O          -1.57300946770475   -1.62448822873340   -2.23439466216101
O          -0.24013053533300   -3.14749167882736   -0.87167467732128
H          -0.04818363296061   -3.46858765817300   -1.74792750639579
H          -2.56363129730767   -0.31309969544147   -1.85884052843273
O           1.97833102559261   -1.03833527721715    2.66722527456878
H           2.68445595210977   -0.79938446961811    3.26870760743477
O           0.56127814697874    2.19988132516978    0.91076167534566
H           0.40742884036820    2.99569902261476    1.42073408563022
O          -2.85469659796191    0.49740117178081   -1.38089511463475
H          -2.95423778631481    0.19630390428612   -0.47090693676467
O           2.44850616003570    0.09276857810545    0.27895867001269
H           1.87342640886684   -0.37903057980632   -0.34949323544929
H           2.01299944018606    0.93725985518538    0.45221012173410
H           2.26260506122886   -0.74268255900338    1.77300774775159
O          -0.37842991149696    0.22310828875017    2.23079265878152
H          -0.77249458327449   -0.34311642902933    1.53927390255990
H           0.39279538080845   -0.28600821799759    2.55361051370006
H           0.18133312249670    1.43488867598275    1.46825562808246
N          -0.41276553993794    1.48903842067702   -1.46247033501972
H           0.07444267595893    0.54513993986224   -1.54952853089394
H          -1.45150065299148    1.25756119285649   -1.42784593845699
H          -0.08803656851643    1.91069348144774   -0.55415731619573
H          -0.19185959406333    2.08767879609211   -2.25129594023547
