    26
        -50.46085922  Gyration_radius:  2.53232381171 Dipole_moment: 4.726
 S           1.08078901472237    1.50533267573565   -0.96415350129940
O           0.29072032820459    1.68018349461045    0.22999901267953
O           0.91892246549838    0.15111897135745   -1.52153832485507
O           2.48226267956024    1.82433719406684   -0.78545769952054
O           0.51090711201778    2.49630820669666   -2.05625876953156
H           1.17724710833012    2.49190633707387   -2.73730472451931
H           2.72409463895899    1.41822446081491    0.83270979515382
O           2.51595055498362    1.02315053184272    1.71060683193245
H           1.70691431893780    1.47621988442963    1.97307650748050
O          -0.79602980516038   -1.92145608472126    1.28784354362953
H          -1.09286981526055   -2.37850565532202    2.07528192380813
O          -3.35824294557466    0.13625573856231   -0.89871374937457
H          -4.17093019568535   -0.35993973721863   -1.00256343259813
O          -1.81253491068645    0.42373873506995    1.30671187116490
H          -1.22424682995026   -0.99655385457526    1.32540461977580
H          -1.09122797584028    0.98484212211868    0.96182298542389
H          -2.49128109579586    0.43703795036451    0.60150284996811
O          -1.28420739254646   -1.44629267064645   -1.52963011774155
H          -2.64291200793644   -0.41723986349258   -1.28575723587640
H          -0.53096924786347   -0.84462881898313   -1.66714934897167
H          -1.15389199462435   -1.83661887562325   -0.65584489734238
N           1.66352419738222   -1.19720142563703    0.57199856386267
H           1.42199958949806   -0.74297431681882   -0.36142241092846
H           2.34697010203275   -1.93733504752646    0.45160979977365
H           2.04878947355422   -0.40441753354647    1.16929968489471
H           0.76025263326716   -1.56549242864349    0.96792621302026
