    26
        -50.45484845  Gyration_radius:  2.4874333445 Dipole_moment: 8.982
 S           1.51364201722792   -0.32565548805958    1.57758539480102
O           2.19797816083187    0.07653703466762    0.32052703173432
O           1.73792365813820   -1.69324156759619    1.91902540778737
O          -0.04427955562117   -0.19348812249564    1.19779805723945
O           1.70622412644366    0.67005715181679    2.60675834121333
H           0.62857240832428    1.85066677535370    2.44108873203103
H          -0.30741051888270   -1.07692077152461    0.86828311578100
O          -0.10822030072932    2.44094040189234    2.12241753089286
H          -0.90320190081875    1.92021823275303    2.26070351971464
O          -0.70073407102928    0.48704362726365   -2.06156421841701
H          -0.64323625753317    0.62063952623396   -3.00910740358367
O          -0.94438441793061   -2.49509650443527    0.18062032040224
H          -1.23189868001855   -3.03077860063902    0.92112537503644
O          -2.78832783211066   -1.03372267206723   -1.09893210277229
H          -1.73598688344958   -2.06590156799119   -0.21537045095811
H          -2.13247683315996   -0.36484952287625   -1.37519446064013
H          -3.16842480912903   -1.39588519835964   -1.90135940745794
O           0.99964272531815   -1.37520710914073   -1.50127973148934
H           0.55439140998469   -2.07043603900997   -1.00056937105376
H          -0.04842853936844   -0.25818288045076   -1.85424047592790
H           1.59573340283638   -0.92863786202333   -0.85609885206768
N           0.75781373543497    2.07978332170976   -0.33228144106247
H           1.47070425120326    1.29664927138370   -0.08672080254232
H           0.31121800763843    2.33364445449135    0.60307201517586
H           1.21733815639270    2.88005724391197   -0.75269470140984
H           0.06582855000603    1.65176688519359   -0.97359143242848
