    26
        -50.45454419  Gyration_radius:  2.42327057159 Dipole_moment: 8.703
 S          -0.38624060366948   -1.69486356335033    1.62638020969193
O          -1.35185224148691   -1.78232945049802    2.67562813655783
O           0.24988769613387   -0.34378898566656    1.59887587904539
O          -1.17893462153705   -1.78143309147050    0.24003754597894
O           0.61730364071379   -2.71922036384128    1.51586043190715
H           1.09357259864698   -2.20950962833586    0.06497058864172
H          -1.87123688293720   -1.11174297943982    0.22260941153012
O           1.37957953295293   -1.91327738756837   -0.83683548804683
H           1.39133630856845   -2.70947722896784   -1.37074559744614
O           1.18355686641772    2.20545185686075   -0.83446479118346
H           1.77886509961013    2.91539098017564   -1.07547379438271
O          -2.50994167273108    0.41214003709379   -0.76709069811555
H          -3.25824395268420    0.24573128030855   -1.34078920559873
O          -0.22787262913940    0.03097557450781   -1.97726419894041
H           0.24067555022774   -0.72090450207458   -1.56184113043496
H          -1.69008525928285    0.22440001520152   -1.31050946746514
H           0.30498618650191    0.81414314481114   -1.77986822529428
O           2.47675486084475    0.30208949179417    0.32833898544576
H           1.78662440762874    0.05094995862288    0.97928029128856
H           2.49433521693608   -0.46262094831083   -0.26587719186316
H           1.75321515634935    1.49619509136340   -0.39288354800779
N          -0.87603851308111    1.78890440833617    0.85991619365097
H          -0.14660086766635    2.16961589083921    0.22017382513489
H          -1.70295643642093    1.50371620092222    0.31124260044398
H          -0.43758227367805    0.85357008358059    1.26789732871291
H          -1.11310716720895    2.43589410510443    1.60243190874901
