    26
        -50.46085921  Gyration_radius:  2.53221286872 Dipole_moment: 4.724
 S           1.26995073623092    1.48778525881375    0.73258068558022
O          -0.02798523789522    1.15980171450466    1.26967312986588
O           1.54308290142356    0.73932354012268   -0.50672587533734
O           2.35056224306747    1.32210582194239    1.68261017053987
O           1.23843526626291    3.01399463650355    0.32133464626625
H           2.15469495031334    3.22789276076468    0.17093197090247
H           1.77836428896386    0.05614426838260    2.63751420805449
O           1.19402999234522   -0.69288797560640    2.89748506097856
H           0.32420010727415   -0.28386585341379    2.96648874612645
O          -1.14905698595900   -2.06561317493687   -0.62958084414950
H          -1.75759424963723   -2.79481752375696   -0.50711333368620
O          -2.43846774894958    1.37865070574217   -2.06274683843485
H          -3.03533362975118    1.22469477193736   -2.79589195079728
O          -0.18947987588936   -0.03185603211775   -2.45839249496363
H          -0.48186440353779   -0.85342645665379   -2.04319972732946
H          -1.57642779306100    0.97845069178360   -2.31686127175922
H           0.46844239383661    0.35308038441971   -1.85239151580242
O          -2.25557686494093    0.04750310798517    0.28876072688387
H          -1.51649504328988    0.52051297541257    0.71778639904324
H          -2.48247737067018    0.60044115974660   -0.48646473367981
H          -1.62412278741650   -1.24221708419940   -0.25978884605911
N           1.25225396005869   -1.66159077285844    0.44566250544927
H           0.31283117146580   -1.96481409384470    0.07965144010953
H           1.47363996811628   -0.73051173881997   -0.02326139110267
H           1.20433915541050   -1.43844675930291    1.48568278076266
H           1.97005484620393   -2.35033433251641    0.24625636251598
