    26
        -50.46085919  Gyration_radius:  2.53229312797 Dipole_moment: 4.724
 S          -1.84765874673462   -0.96920379649740   -0.09768519556567
O          -1.65768241178466    0.33046475977512    0.56984024486041
O          -0.58973883234439   -1.52618167612064   -0.53148671729167
O          -2.83265182128665   -0.86590206268162   -1.15454234510160
O          -2.43976403694966   -1.93998944702129    1.00067244515551
H          -3.34047000039685   -1.64632924369679    1.10228029863622
H          -1.85984663365647   -0.61392691655221   -2.50817331658128
O           1.97977236444745    1.40787681682757   -0.28891392180534
H           2.82977528229181    1.64899088152244   -0.65827609943463
O          -1.03593094203654   -0.41568568654340   -3.01008980451792
H          -0.43774235769737   -1.12346406299979   -2.74573052544695
O           1.77989429488903   -1.03844764279171    2.80313882662726
H           2.44824536431798   -0.80494814867473    3.44830491378994
O           0.40609454554118    1.16786488616970    2.13346927847460
H           1.20201585746999   -0.24859464642226    2.70286126878246
H           0.98549956109134    1.46518153616871    1.42019224963202
H          -0.40511693590344    0.84693597746913    1.70076871931194
O           1.97778056372684   -1.11795818259067    0.10294462308128
H           2.01260184871737   -1.24806342584583    1.07247170020771
H           1.07166736589449   -1.38393074066428   -0.14662421278985
H           2.01742851080412    0.39953336027437   -0.14012580701530
N          -0.44730053272169    1.56438221701424   -1.37116778420177
H          -1.00515172860400    1.18048110712060   -0.54813123653330
H           0.55987275598655    1.58653938833038   -1.06559074177274
H          -0.59498176409399    0.85775408983428   -2.15383909113177
H          -0.77661157095358    2.48662067860644   -1.63656777934327
