    26
        -50.46085923  Gyration_radius:  2.53236718701 Dipole_moment: 4.726
 S          -0.37330729182515    1.93846341003680    0.68319894106269
O          -1.44446409220569    0.96635791564478    0.40306558304144
O           0.91706340551356    1.42623639803224    0.29160229336280
O          -0.42850301530718    2.38245734390603    2.06073722938541
O          -0.67772162104392    3.19537074393517   -0.22616276169972
H          -1.42379061528052    3.60843101407368    0.19879509662034
H           0.68081418408435    1.35048186101406    2.79995024193294
O           1.28614556264832    0.57807259515860    2.88391304860909
H           1.92844444601067    0.72026443124932    2.17970217675945
O           0.16235737474940   -0.06415175330311   -3.47509028276862
H           0.04710656925978   -0.59672022690316   -4.26283995576212
O           0.37623330864400   -2.39842488410980   -0.29916659225469
H           0.89842526247406   -3.20071633168664   -0.32545161168160
O           1.76341294412591   -0.51998658433184   -1.33862674352119
H           0.95570585414528   -1.67562723590256   -0.72587036214948
H           1.34814080341118   -0.31332970598695   -2.20064419565895
H           1.55549355627562    0.25124895854627   -0.77643744752892
O          -1.64803100249932   -0.81716027428437   -1.64222318863136
H          -1.67030611638861   -0.09637942448479   -0.98782189357797
H          -0.60858518339431   -0.25551382830462   -2.89464760483294
H          -1.13010213711404   -1.52493696556587   -1.23770640138321
N          -0.50973820160526   -1.01797421643370    1.79743941048177
H          -0.12076762959074   -1.67387846498585    1.07162090701991
H           0.27163699118397   -0.51850989062129    2.32065051091002
H          -1.01917915798944   -0.24680528850897    1.26672644724816
H          -1.13648421827629   -1.49726957612960    2.43528715499976
