    26
        -50.45568719  Gyration_radius:  2.56715971275 Dipole_moment: 1.976
 S          -0.73979289263594   -0.51746534755613   -0.44335878957212
O          -0.67733472461079    0.35593486082280    0.75588123940774
O          -0.78757947961473    0.28245403687620   -1.65316953224014
O           0.37172036694599   -1.45036267449100   -0.43673143356585
O          -2.06762052862389   -1.29529527016673   -0.35035140464455
O           2.42093058725127    2.16174055233142   -0.34010303403874
H           3.00645898079682    1.85518133815485    0.35443626588751
O          -1.27446196012548    2.81964242189581   -1.75940109957690
H          -2.22356741300329    2.94790862115091   -1.71157916262517
H          -1.12918509004499    1.84330498771541   -1.86297623065054
O           0.05459308012999    2.67741112313205    0.39852067458430
H          -0.27935282143135    1.67965046510529    0.61722386216804
H           1.04308428491753    2.55733459899923    0.11736146151812
H          -0.46419230436587    2.91235639731425   -0.45425309779875
O           1.97198952483798    0.08802770970460   -1.85715652430607
H           1.50595736096570   -0.58360188743334   -1.31463909158780
H           1.31937717334800    0.34147533219726   -2.51716841938216
H           2.30927472416674    1.39458056081838   -0.97123999689924
O          -1.81546158361638   -1.70285850567067    2.15211874608658
H          -1.37233516131329   -0.84408871765583    2.15922686803235
H          -2.11637848588851   -1.56502598721087    0.61974976095251
H          -1.09047183471414   -2.38072534248118    2.15985214529083
N           0.29635320443777   -3.29550510477518    1.73037927841133
H           1.14210554420884   -3.30615828601350    2.28639152346741
H           0.47728310714185   -2.73235761298096    0.89741883852083
H           0.11860637084793   -4.24355824978239    1.42356714256624
