    26
        -50.46365780  Gyration_radius:  2.44724389284 Dipole_moment: 8.571
 S           2.31004083111615    0.52117351114404    0.55978437238965
O           1.22058940986264    1.42103927923663    0.91990249173572
O           3.48172294541458    0.63320550116874    1.36283461215184
O           2.74847645782413    0.95925779558951   -0.92762874361957
O           1.80137979335334   -0.84016597555707    0.36955999686095
H           1.13525032714667   -0.81005366846948   -1.04504670066664
H           3.50441398206466    1.49043516632819   -0.70697462209088
O          -0.28345039533134   -1.83536937837648    1.66128308818051
H           0.60785457756985   -1.61376794300827    1.31581419630513
O           0.63226285551933   -0.80070992287487   -1.90846105630995
H           1.29653227982078   -0.90557821224841   -2.59049218946757
O          -2.50570118571028    0.91642286683880   -0.13784053302453
H          -3.23015562361468    1.49365096604230   -0.37884025821664
O          -0.28918422243043    1.71508132464046   -1.19565817104432
H           0.30129485466371    1.75536857569888   -0.40870824761554
H           0.04320385540562    0.95605257772603   -1.70039683175338
H          -1.67700542648525    1.31006887304262   -0.55398879165822
O          -0.96611835909815    0.62365289860560    2.26288696395306
H          -1.64458411844751    0.84548604412495    1.61028194468861
H          -0.57901905760523   -0.99794398567529    2.10597040812629
H          -0.13853782084268    1.01344175410053    1.91854822319592
N          -1.57897964512352   -1.58630357442122   -0.52998645579485
H          -0.83401269443998   -1.42602629647141   -1.23039076202078
H          -2.18338237071850   -2.35362114062179   -0.79908642278781
H          -1.05985670736935   -1.78477100518592    0.43740966282859
H          -2.11303452254295   -0.70002602137700   -0.41077618434469
