    26
        -50.46365779  Gyration_radius:  2.44717063096 Dipole_moment: 8.572
 S           2.10278444353366    0.93286693196589   -0.79315531197551
O           2.07184409177817   -0.23844351464598    0.07487131177170
O           3.27092369169391    1.06199003045972   -1.59877485668840
O           2.10913888080458    2.19949632628792    0.20297164803579
O           0.82723072810686    1.07285205471579   -1.50135936925324
H          -0.14208232815296    1.68205232461344   -0.43563603975650
H           3.03926361551775    2.39194797012825    0.18990815142106
O          -0.80435569837094    1.99455287538555    0.24420013285352
H          -0.68075061081541    2.94259039021128    0.30215268200704
O          -0.71862595584990   -0.96485382340530   -2.18162884753001
H          -0.10770578873906   -0.19733354624129   -2.15684782107706
O          -1.16650367855035   -1.70829091400645    1.69044598339375
H          -1.38321108887066   -2.12794312950178    2.52292219817422
O           0.43344027227881    0.28777116364088    2.04465834474230
H          -0.01321937213363    1.05013518252925    1.64384469376492
H          -0.51604551916151   -0.96939870386753    1.90450573122722
H           1.15691746500669    0.07496179578270    1.41150752693269
O           0.60123979800635   -2.42564815248649   -0.44978330039790
H          -0.22056643205736   -1.67854302221343   -1.70311057048520
H           1.27584284371032   -1.73947046954923   -0.27810419660332
H           0.03484076987266   -2.42970396975261    0.33414627114578
N          -2.27014873540556   -0.23725213254922   -0.28289524455373
H          -3.26544111788565   -0.24161583879420   -0.47228215488899
H          -1.93218077118572    0.71280245446562   -0.04969537479307
H          -2.02590919316188   -0.87456065391830    0.50393260148157
H          -1.67672031996744   -0.57096164925503   -1.16679419894895
