    26
        -50.46254373  Gyration_radius:  2.49156279457 Dipole_moment: 7.194
 S          -0.64588075420133   -2.21774454032025   -0.55015942450383
O           0.66234566652301   -2.68961342163054   -0.08713291898329
O          -0.63001786877536   -1.71483482943172   -1.89368607866906
O          -1.20415846136274   -1.27376751927965    0.41897024475465
O          -1.59051050278604   -3.48715948441686   -0.52658143228201
H          -1.47335090858532   -3.79996215693070    0.36438482736279
H          -0.58162580182732   -0.49960825583348    1.81618530287686
O           1.49251632274425    1.51025898532807   -0.93280398810207
H           2.10648591537345    1.93313430057199   -1.53410671122254
O           0.01108419920403    0.02193359746905    2.39927313880091
H          -0.16979018239886    0.95010426991982    2.18899054181512
O          -2.22700481336803    1.13432561538916   -0.25141804563242
H          -2.02922691273987    0.20710194033091   -0.02205266880333
O          -0.54377155004037    0.89569152147931   -2.30416495567959
H           0.68082983782541    1.24985180084900   -1.51397701385722
H          -0.56378695186390   -0.08365332547601   -2.33375753075011
H          -1.29675083178266    1.12064050267941   -1.71007402205965
O          -0.09977699033559    2.47087872957765    1.07606479874641
H          -0.14886563479059    3.42747417758260    1.07349236865431
H          -1.68157585213069    1.66764334845127    0.34402802069662
H           0.51182111519858    2.21219833230866    0.35857340464830
N           1.91881082016980   -0.60054807982800    0.72202111221213
H           2.87230980970066   -0.76939668373806    1.02238005453443
H           1.28398013943578   -0.32005291569717    1.53590778540604
H           1.87185940367063    0.15574308393236    0.00737224872690
H           1.47405078703190   -1.50063900333525    0.33227095135156
