    26
        -50.46053898  Gyration_radius:  2.59430574911 Dipole_moment: 3.634
 S           1.63763105371825   -1.26646358563439   -0.14237384639434
O           1.69502990222647   -0.40267828557139   -1.31272231798643
O           0.38977941182138   -1.10750347777116    0.58166577316640
O           2.80683331803256   -1.14434965405055    0.69954187273427
O           1.62540398836583   -2.76796134985479   -0.68427791368040
H           2.53907359844568   -2.95004159726178   -0.88445754249855
H           2.34353993002144    0.14158523748831    1.67611392994773
O           1.84484347706947    0.90479797462574    2.04607388033549
H           1.03672023829725    0.52362527548728    2.40214981559899
O          -3.43577372096078   -0.92136924625974   -0.51633063606274
H          -3.70063483274276   -0.33540771173442   -1.22757183282499
O          -1.32828075996545    2.55741900037765   -0.17506144267106
H          -1.59903912570726    3.28572797032384    0.38593223037653
O          -1.12907081788268   -2.03342391284827   -1.41373414516084
H          -0.54996519717875   -1.68224884106433   -0.71331548246610
H          -0.79905247719472   -2.91372334034589   -1.59972377049827
H          -2.68621010069234   -1.44124807417917   -0.86750175513725
O          -1.79586141832412    0.40200166898669    1.18048576977275
H          -2.51696684128839   -0.07501075820682    0.71714755069957
H          -1.01572629725295   -0.16309315458325    1.05507880943219
H          -1.57710508528337    1.72231994891883    0.32629726180401
N           1.24657628594475    1.96018549612663   -0.31729239182913
H           1.38256577331242    1.05748032654306   -0.86235806020951
H           0.22862532951647    2.25676552174936   -0.34978803933166
H           1.50198171049625    1.70713001270988    0.67777711875164
H           1.85508263719251    2.68548454601218   -0.68175486592214
