    26
        -50.46254373  Gyration_radius:  2.49155553167 Dipole_moment: 7.193
 S           1.78989945722608    1.47827475232481    0.49851592948945
O           1.57694095853188    1.92724038394557   -0.84734123808581
O           2.68829309482849    0.32406202136996    0.59435596208292
O           0.54908076867564    1.20271071066768    1.22417942378445
O           2.51153831372338    2.64767093986031    1.28331276418177
H           2.68796573337691    2.23832936164841    2.12389713702869
H          -0.11136107698440   -0.19859029521165    1.95904038242752
O          -0.42148714618284   -1.12193924322643    2.07954289098283
H          -1.28791884262051   -1.16246134333244    1.64813489101526
O          -0.54923191468665   -1.27912532118097   -1.85423288418697
H          -0.56206646888853   -1.64427211473777   -2.73959811628662
O          -1.91290222516690    1.61533292076066    0.19332421555661
H          -1.04332086158710    1.63241385125342    0.63504938620275
O          -0.63774069106276    1.23648669908492   -2.11615266904809
H           0.22944854082772    1.57036859832703   -1.80490426634903
H          -0.56501499742289   -0.25563636763160   -1.98353534464572
H          -1.25847279022855    1.51885373647170   -1.40513210623711
O          -2.42109941605247   -1.17995288054548    0.14073543651189
H          -2.25624495179735    0.72213990588465    0.33745588099089
H          -3.29110007983621   -1.43808405558915   -0.16568687734629
H          -1.80933303841049   -1.27720242978506   -0.61565710766671
N           1.22816981676272   -1.74118136324070    0.14671100715975
H           0.65699700309411   -1.60701938964999   -0.71390173498173
H           0.57074230821881   -1.67568084397606    0.98787218052092
H           1.73301742089693   -2.62010730387826    0.12451640799140
H           1.90520108474355   -0.91263092971875    0.26949844905500
