    26
        -50.46254374  Gyration_radius:  2.49159589606 Dipole_moment: 7.195
 S          -2.29181247365446    0.26793497875884   -0.56098238097507
O          -2.64062950066028    0.02835578226560    0.84238683921372
O          -2.08037815733957   -0.93630318615767   -1.31148162433427
O          -1.17320325098292    1.20836999763097   -0.64069946695530
O          -3.53968101960153    1.01017523712184   -1.19049772180533
H          -3.65688279347880    1.73749376052442   -0.58845888461609
H          -0.11678931177213    1.89781149634944    0.51985825521689
O           0.52228500257764    1.97352370158892    1.26096640024979
H           1.38381463838021    1.73989316099992    0.88474846208039
O           1.02879773382959    0.79440633716436   -2.14855976454278
H           0.17246207148832    1.03525870164489   -1.74837901466034
O           1.30083880198049   -1.82771912458889    0.58676481399398
H           1.59792704379959   -2.72548196958003    0.73866587731558
O           0.38784361805759   -1.76494850678003   -1.77274329335536
H          -0.57627822483668   -1.61272395130153   -1.68539605868331
H           0.72232592258040   -0.90765981394432   -2.12466328964779
H           0.91455778361783   -1.82864427994000   -0.36986552382774
O           2.64019766118573    0.52402682745251    0.17561246853814
H           3.57435334569923    0.38587042737164    0.01524339407797
H           1.68159986343239    0.90329070825798   -1.44254386503844
H           2.24502112650413   -0.35334146571716    0.34849521961682
N          -0.41295726507084   -0.33122409573548    2.06969136589368
H          -0.50370428435020   -0.56614659235128    3.05175375410859
H           0.02339678496325    0.63458621874718    1.92544637188592
H           0.17688216246340   -1.02483971635012    1.56388528960890
H          -1.37998729881298   -0.26196465342227    1.60075236662959
