    26
        -50.46254369  Gyration_radius:  2.49170905205 Dipole_moment: 7.213
 S          -1.30736282494197   -0.38239250291803    1.94565018589920
O          -0.34748991345453   -1.41030637789036    2.35870883303990
O          -2.28101365050697   -0.85392463914979    1.00348000144983
O          -0.59193273990733    0.81246003247440    1.49557141202121
O          -2.07980661141541    0.03392445511144    3.26271187208862
H          -1.36207359063976    0.24476794664674    3.85053835308526
H           1.05707016101785    1.16468024176684    1.18877044047173
O           1.96803738340326    1.09348991343274    0.83025999456138
H           1.91635075046938    1.43012497610808   -0.07664090119794
O           0.38024951392757   -1.21637532435710   -1.93792981546753
H           0.31328055977197   -1.87585094773292   -2.62924397428733
O          -1.12130100784930    2.09051546210081   -0.82415340113134
H          -1.04470833958635    1.74919802468305    0.08640036117194
O           1.39994182079229    1.32368232543880   -1.88725663129458
H           1.07782637248727    0.40630936399222   -1.98973283594426
H           1.59870483386437    1.65222376370137   -2.76472211788291
H          -0.22278053801267    2.06838736853502   -1.18274800588318
O          -1.96005268625728   -0.32727746904108   -1.56792359071019
H          -0.58442131186618   -0.88246706405066   -1.78820500611566
H          -2.22332297167278   -0.61973314485467   -0.67043669516178
H          -1.82179023821860    0.64214720377964   -1.45951259326044
N           1.46558204235223   -1.45661169513766    0.53975336381685
H           1.03409271084410   -1.51434044510747   -0.40649475348996
H           2.17641563681402   -2.16797630800993    0.66837063439213
H           1.85829092660996   -0.46887102108156    0.65956660237986
H           0.70221370195153   -1.53578410847542    1.29521827742407
