    26
        -50.46053979  Gyration_radius:  2.59435354363 Dipole_moment: 3.612
 S           0.45749702387146    2.01626117842718   -0.17699015954072
O          -0.55416844197562    1.12592664975404    0.36235104351506
O           1.35281093436419    1.32220598369001   -1.09109268743439
O           1.16522419738865    2.76102032909309    0.84062141085440
O          -0.34168044944157    3.08987179374217   -1.04729896006165
H           0.26097973592339    3.82437667426875   -1.12038687228995
H           1.36464609229621    1.56541904701090    2.00442179216654
O           1.37295767945660    0.69337089867715    2.45974321468236
H           0.44584220168682    0.47239173494274    2.58914849388023
O           0.65659273077790   -2.80142370974941    0.21890927005571
H           0.75934876709413   -3.48314105982855    0.88456477993818
O          -2.96903756174436   -1.60873867106613   -1.24138426050548
H          -2.61635355583801   -2.27828292525165   -1.83016120124174
O          -1.70368709251736    0.66609576262819   -2.00677429428877
H          -1.95056430683613    1.52895097909212   -2.34287652660659
H          -1.24963581724024    0.83740701395070   -1.16203371684967
H          -2.63906931792711   -0.75487241988091   -1.58423739469876
O          -1.39290568385744   -1.39802728490411    0.94775884822120
H          -1.13450346323186   -0.47066853796926    0.81834641331028
H          -2.09589593391963   -1.54885705729524    0.28051450318321
H          -0.18099395810891   -2.30395109342623    0.46745738951288
N           2.22069110850338   -0.66957166319996    0.34248861800585
H           1.90737190295208    0.05531725554731   -0.36937862687677
H           3.21680459338525   -0.84035953493379    0.25472325508979
H           1.98496662506663   -0.23681374069079    1.27867881977900
H           1.66276198987470   -1.56390760266139    0.22288685821106
