    26
        -50.46053966  Gyration_radius:  2.59413636429 Dipole_moment: 3.608
 S           1.66967613786268    0.91746719615406    0.82071122680438
O           0.22598217699344    1.04947301517080    0.74535795554233
O           2.17446011094024   -0.02870877893442   -0.16333719457891
O           2.15055075991814    0.64472790349129    2.15685602613628
O           2.24979944007342    2.34979047221259    0.41851090965854
H           3.12558051693029    2.35908820516400    0.79397335578003
H           0.99023392465261   -0.45612884481285    2.67397400202112
O           0.22950284251870   -1.07975137587914    2.68369655627341
H          -0.54646131886454   -0.52535647574087    2.55888147197892
O          -1.50981236976986   -2.26194456775473   -0.96828454211735
H          -2.18035134327928   -2.87911646763642   -0.67187744093492
O          -2.34417729982844    1.52319526215543   -2.26636011315181
H          -2.30104046244979    0.94722774252631   -3.03169846755358
O           0.25597959715003    2.07785692412276   -1.72276426403862
H           0.82009986382578    2.85078626881070   -1.67080949724979
H           0.27658613352169    1.68223125268522   -0.83281671146283
H          -1.43444973664644    1.85475265595883   -2.13347608123659
O          -2.19020062321532    0.04305081502587   -0.00645924233145
H          -1.81558839874219   -1.35765135911033   -0.65301309844686
H          -1.37109302777089    0.43588557006372    0.33741546986279
H          -2.43115004413480    0.61257146296529   -0.76783282458177
N           0.79436424456976   -2.17962200667506    0.33187970955938
H          -0.08177110007789   -2.27723614150769   -0.25826723869315
H           1.38094143174598   -1.36408947638998   -0.01602236586824
H           0.52051529954760   -1.90486095270471    1.31610806876727
H           1.34182323453048   -3.03363826934208    0.32565433984687
