    26
        -50.46254368  Gyration_radius:  2.49152428157 Dipole_moment: 7.189
 S           1.40250162632071    1.89839203332651    0.25786861383225
O           1.11413943652359    2.09576642410692   -1.13355916291836
O           2.53659212229735    1.00144922393879    0.49817550073221
O           0.24503164081818    1.45414677443208    1.03558037070912
O           1.82966127559006    3.29803310169461    0.86022072789015
H           2.07940077048319    3.06038074576010    1.74698560043849
H          -0.09196783401234    0.05556072675319    1.96838258078523
O          -0.18722264497910   -0.88798627160137    2.22118794766147
H          -1.01587026574093   -1.18249388965260    1.81501710372939
O          -0.21854659058411   -1.61523323834016   -1.64934248340781
H          -0.13507801545672   -2.09268691322591   -2.47541620421034
O          -2.23161173138100    1.15252606688423    0.00143689800476
H          -1.39499030105049    1.42700594454250    0.42119825581513
O          -0.86933838946139    0.75442768863699   -2.25447784202837
H          -1.54826865052510    0.98535173455738   -1.57895065072945
H          -0.10448286939513    1.31508399310993   -2.00735186153623
H          -0.46330866697390   -0.64981417811300   -1.91834363335190
O          -2.09445262037789   -1.66442146357884    0.34399416945220
H          -2.36548025697582    0.23349361571165    0.27342614647125
H          -2.88091344560303   -2.14854590493161    0.08992447087425
H          -1.46529434061237   -1.72583762763435   -0.40175143714759
N           1.58801733317502   -1.38187945900478    0.36500972697110
H           1.01394031991385   -1.50088172558120   -0.49590088854802
H           2.05846592029722   -0.41311780558821    0.36038090318452
H           0.92045895898493   -1.35020936911563    1.20009411707628
H           2.27861719875714   -2.11851023709924    0.45621107023141
