    26
        -50.46254373  Gyration_radius:  2.4915812481 Dipole_moment: 7.201
 S           1.38322000450430    1.92897231650957   -0.07498384766479
O           1.37171311167742    1.68328335218455   -1.48837168828967
O           2.42317601305424    1.18306680078656    0.63944978659296
O           0.08580371630281    1.70873275914988    0.56559980600579
O           1.72924040954062    3.45796326819419    0.14101258309697
H           1.79526132538247    3.51033218214024    1.08870071112593
H          -0.46565012047985    0.65514943232125    1.80037674558666
O          -0.63603074456301   -0.16749101220003    2.30787268560823
H          -1.37968275827837   -0.59821541962601    1.86078632296813
O           0.05253009124306   -2.04983314623156   -1.08305588373618
H           0.27659157337431   -2.75585549420824   -1.69019914492867
O          -2.15371400173108    1.02753828896918   -0.78119457973587
H          -1.40526510326287    1.44316356980019   -0.31366639698299
O          -0.39667875202872   -0.00198331270788   -2.50033237751010
H          -0.10602437000346   -1.22160333363837   -1.67759174390207
H          -1.18546992472443    0.40403179399797   -2.07183778759657
H           0.32256097284290    0.63158234436950   -2.29621480305339
O          -2.16995334606639   -1.54216199353827    0.43198654674995
H          -2.90611783794887   -2.10791894479748    0.19665807888941
H          -1.41201373528724   -1.80988713924779   -0.12460198565161
H          -2.36603464858856    0.23342490143543   -0.27061181275267
N           1.44569899923674   -1.15323110094176    1.06876379252029
H           1.04373330832328   -1.54909239484326    0.19319871856408
H           1.93720642848230   -0.21894488910010    0.85585423361380
H           0.63207009098184   -0.88682819471835    1.70989670771027
H           2.08382929810475   -1.80419464415461    1.51250533280664
