    26
        -50.46053873  Gyration_radius:  2.59429164818 Dipole_moment: 3.630
 S           0.20966517507436   -0.93480855746875    1.84082822012377
O          -0.89522150540594   -1.60805058191698    1.17363927794013
O           0.62892706861114    0.25317842360740    1.12000486322069
O           1.30193774808420   -1.82962583416046    2.15243037653058
O          -0.35484204971364   -0.40636894387380    3.23729320824451
H          -0.34507706286257   -1.17663402297733    3.79820612829106
H           2.17495512421675   -1.75283664393180    0.71940691494282
O           2.43771870503109   -1.55684307425248   -0.20823291753154
H           2.58910748446951   -0.60718621159403   -0.22755578702537
O          -1.31840555109201    3.29615302170103   -0.56023428322461
H          -2.05718450662692    3.12279055170126   -1.14633985937754
O          -0.41773492768052    0.04617102198709   -2.85540897648200
H           0.08164941793121    0.09831632054961   -3.67169181053334
O           0.74329222003835    1.66724365673321   -1.20431612855756
H           0.78807470287824    1.19325956042262   -0.35757309886112
H          -0.00647992646777    0.72839211948041   -2.24209519405370
H           0.11438400119209    2.40136536304245   -1.03763607031741
O          -1.68248958653453    1.54582485427382    1.48043789503403
H          -1.80464309480893    1.59187027282776    2.42987803153468
H          -1.49839424622284    2.78133111684853    0.25105035783368
H          -0.85992975976184    1.04031941353652    1.34927307322734
N           0.02523991204616   -1.99564349143608   -1.23017374006591
H          -0.17116716402181   -2.91746696996298   -1.60541741111788
H          -0.23481758164111   -1.23338582693860   -1.92054593870181
H          -0.49476010728808   -1.85271881054691   -0.31391528762958
H           1.04619549054855   -1.89464670752196   -0.97131184351645
