    26
        -50.46254370  Gyration_radius:  2.49157216059 Dipole_moment: 7.193
 S           0.88472509953117    2.17294987771795    0.36528192950703
O           0.69640585376896    2.31017538743769   -1.05023666866328
O           2.16877186315489    1.56611824918750    0.72794469972172
O          -0.20631988858244    1.46114313982761    1.03231512791253
O           0.90946675036122    3.62797981265125    0.98707258515875
H           1.11951339760622    3.44727825614962    1.89730936440184
H          -0.29718978086215    0.01506865628508    1.94951425035712
O          -0.19264431729054   -0.92650297355117    2.20591384918736
H          -0.88424915856131   -1.40425468599360    1.72443732020869
O           0.33096754530095   -1.60659760516782   -1.63840216931685
H           0.60490720764331   -2.04473314399465   -2.44480833688499
O          -2.42837401448297    0.59511582062548   -0.23526044986991
H          -1.72513445050166    1.05463064979775    0.26046626741352
O          -0.79468647825071    0.54855495424328   -2.34064880764449
H          -0.21154135423663    1.27153823699790   -2.02824975361649
H          -0.10561211420578   -0.72351598435051   -1.94493180793214
H          -1.57219200841009    0.60735722623052   -1.73849335070118
O          -1.66783065300785   -2.11365115264523    0.16179014357823
H          -0.97142319033318   -2.01816252327066   -0.51774141726816
H          -2.36956012356829   -0.33193278791058    0.03600174919718
H          -2.28790900167472   -2.76882169603359   -0.16018641915154
N           1.82349091165517   -0.97216451648081    0.54018246449921
H           2.05135497780834    0.08013815900752    0.56679721571548
H           2.65542900908975   -1.52629116750814    0.70963525096209
H           1.08814690200998   -1.10574510172680    1.30525899418902
H           1.38148699606312   -1.21567508747977   -0.37096203096561
