    26
        -50.46053980  Gyration_radius:  2.59426624413 Dipole_moment: 3.608
 S          -1.73122181390888   -1.09221663023344   -0.33649841696189
O          -0.36356532636400   -0.96216627837821   -0.80535464129124
O          -2.12551067052160    0.03889082663781    0.49037057547528
O          -2.00196848710858   -2.36587596037255    0.29229128546562
O          -2.63826848639025   -1.03743393110532   -1.64944845670297
H          -3.45549382986154   -1.44986052763365   -1.38466595297155
H          -0.58855529988903   -2.56941636889514    1.17892535362116
O           1.84246087792931    1.51280140275630    1.62840482336485
H           2.65492790333281    1.39434005606370    2.12261053713899
O           0.28304143335934   -2.40229664932933    1.60334869159050
H           0.90827541764340   -2.35363099371907    0.87409536417374
O           1.72424033097285    2.02196499611387   -2.42699387600101
H           1.72459003395363    2.88924016355418   -2.01814034566408
O           2.11928050172899    0.12424348352398   -0.53877377022325
H           1.98244840072220    1.03082856194817    0.75734596445147
H           1.27581427294203   -0.34184179153740   -0.66089941465193
H           2.15504762833289    0.75965002536437   -1.28517338480196
O          -0.86423414874722    1.22430600562531   -2.26078541242952
H          -0.70930688334131    0.43943862081753   -1.70495744327095
H           0.78369154597559    1.76953970037036   -2.51056120572547
H          -1.56755419109508    0.97551239798721   -2.86233746853394
N          -0.27970887877946    0.09231140788117    2.32505890784708
H           0.03113111265143   -0.90995989423398    2.19115494095364
H           0.53104583094004    0.74007457452375    2.10489018166709
H          -1.05780985781716    0.22437763213724    1.61270027273384
H          -0.63279741666842    0.24717918013455    3.26339289075416
