    26
        -50.46254372  Gyration_radius:  2.49154831532 Dipole_moment: 7.192
 S           0.27660705982521    2.26621992657013    0.65235425364176
O           0.21782214470153    2.50916674848860   -0.76031678354030
O           1.62236765882099    1.94127963099290    1.13394148893784
O          -0.67244678450066    1.24997278891995    1.10903174904322
O          -0.12648791922331    3.60956228904204    1.38536578124046
H           0.02060564215674    3.38481137083488    2.29811504581196
H          -0.50430891072295   -0.26854801808664    1.88743308351759
O          -0.19998665627543   -1.18166465147142    2.07943693629039
H          -0.69545922609233   -1.75245843920914    1.47354756671450
O           0.89459512704521   -1.29527329749284   -1.70239730565937
H           1.35410457723647   -1.56670786233035   -2.49767244785740
O          -2.45902686272169    0.03172492745974   -0.50905814793340
H          -1.94973684270909    0.58618551143946    0.11114480479887
O          -0.64218363475011    0.59982890193514   -2.37457529606536
H           0.29075101893575   -0.51085670641768   -1.99307298881025
H          -1.47181064431382    0.40856259921950   -1.87893475614603
H          -0.29288494347926    1.40049629461158   -1.93036808711600
O          -1.10392609826015   -2.44993006696998   -0.23077484954335
H          -0.38189033083924   -2.12039946514451   -0.80170515968004
H          -2.20392248215595   -0.87964555239423   -0.30705200094127
H          -1.50444834828683   -3.19295073904150   -0.68345703287516
N           1.93606913085540   -0.57067503696011    0.69908511837906
H           1.67079943304536   -0.80966499350019   -0.27933606590202
H           2.85489100129058   -0.92947453288354    0.93339679718230
H           1.89341941578721    0.49629834836018    0.83979208957981
H           1.17648747466805   -0.95586000620550    1.34607620696243
