    26
        -50.46053987  Gyration_radius:  2.5942460485 Dipole_moment: 3.610
 S           1.35763349549910    0.05652470487462   -1.56761243689586
O           2.11424657450247   -0.36522070808440   -0.39783417785759
O           0.01702498081171    0.48563995932287   -1.21296083557231
O           1.38227082265004   -0.92206411154673   -2.63192783526926
O           2.08430968494293    1.35909986692614   -2.13726057759740
H           2.80486322653063    1.01428576002238   -2.65681989169020
H           0.08042940447869   -1.88631488227710   -2.18429848211916
O          -0.66535889290817   -2.27512955843575   -1.67407980149334
H          -1.34394109091513   -1.59350402196369   -1.66859362748633
O          -1.45961803277428    2.85549108600011    1.63187275264604
H          -1.19763354162587    2.73289844078880    2.54602941996867
O          -1.20355137780877   -1.15935180690738    2.35304470490062
H          -1.95384423753590   -1.69970247229077    2.60488562426370
O          -2.07390442854313    0.46111057555069    0.53156485555870
H          -2.04398648371595    1.36438998777825    0.91279852423814
H          -1.39132470398821    0.46968085493207   -0.15946384310697
H          -1.56229405889993   -0.48578851485147    1.69856990848249
O           0.85478308169408    2.56364582149203    0.24577512610048
H          -0.62701293385118    2.89747134349372    1.12159752081450
H           0.58225007197109    1.78679301201613   -0.27505996293325
H           1.39384337178507    3.09070506809887   -0.34588357725021
N           0.57478058956050   -2.17045486450146    0.67337201824513
H           0.01414273473261   -2.36464711276520   -0.20255106006128
H           1.26896755441470   -1.42011416400128    0.38117947413013
H          -0.07337983462869   -1.79549838100004    1.42488547429230
H           1.06630402361729   -2.99994586268306    0.98877068569315
