    26
        -50.46333845  Gyration_radius:  2.64874726 Dipole_moment: 4.741
 S           1.20218924711085    1.36374764794964    1.46750296646469
O           0.31976811779902    2.17822852945510    0.66366457126250
O           1.38030279292452    0.03351640249367    0.86308482650991
O           0.88613915653732    1.30593842356815    2.87174682121883
O           2.64572113494983    2.04107860336025    1.37865669344698
H           2.95492228825000    1.94804127841435    2.27394928536255
H          -0.82900333015852    1.27048990164045    2.83007490369560
O          -1.74369799826025    1.27389812128656    2.48544771629430
H          -1.79967572323048    2.07317747911472    1.95512417297742
O           0.64471014760023   -2.56528315250836   -2.29489550743358
H           1.23592119470762   -3.19380284773433   -1.87706776237298
O          -1.17642696261675    1.21158791947348   -1.30967991799092
H          -0.73795577622815    1.82817451989373   -0.69008457465860
O          -1.61109930181908   -2.75328298689276   -0.90288542485469
H          -0.22804126769628   -2.68662233778009   -1.84818739181007
H          -1.50829907221325   -2.06469329104366   -0.21565230852340
H          -2.45663371836248   -2.58819924307142   -1.32300668939357
O          -1.22692408125057   -0.61407906761812    0.68726393405126
H          -1.61989830737471   -0.07491018743086    1.40926311792998
H          -1.49773784328446    0.50438395423996   -0.71524910333467
H          -0.26493625980968   -0.53231103764840    0.82476189905717
N           1.10796433939359    0.00935732880802   -1.73327534550663
H           0.98503618356735   -0.99121412705395   -2.03697132375992
H           0.16661300818002    0.51633417199816   -1.77718831764500
H           1.35843033665301    0.02167097079643   -0.70131659335363
H           1.81261167449642    0.48477302618977   -2.28508064753587
