    26
        -50.46254350  Gyration_radius:  2.49135501478 Dipole_moment: 7.181
 S           2.16835853929359    0.96248163445172    0.08452871192010
O           2.73998258968581   -0.38252147769923    0.19602231098998
O           1.70108936425592    1.49029852527185    1.33403733148440
O           1.15669280480038    0.98598412000374   -0.97284052617960
O           3.35037680503595    1.88931704505790   -0.41346619320484
H           3.64719363190643    1.42544676441274   -1.18941124557537
H           0.40222532902279   -0.23000622512954   -1.91599006260860
O          -1.35350242503151   -1.03779325026740    1.57134636532480
H          -1.70862309832504   -1.35817501831079    2.40111898324126
O          -0.08227088713490   -1.04945086013952   -2.15516867010105
H          -1.01662828649978   -0.85619964513761   -1.98761774991520
O          -1.31148311921715    2.03698242927580   -0.66074034766568
H          -0.37713292967899    1.82051324443538   -0.83855422631416
O          -0.88132621814495    1.42701798673087    1.89760912278297
H          -1.18328035444593    1.83218816030542    1.05183772700050
H          -1.14925632518999   -0.03931999079765    1.73177906838535
H           0.09335754104017    1.52020428182581    1.85758444183118
O          -2.49709961108579   -0.53702828294221   -0.86437502300415
H          -1.81208706253506    1.25432011662241   -0.93143118698989
H          -2.16909956425310   -0.76024714971810    0.02927512878882
H          -3.45397368019603   -0.55593153737794   -0.82629181938022
N           0.74387685185227   -1.99828640497048    0.13739307712016
H           0.38888354063763   -1.79801154345033   -0.85167722142076
H           0.98490882450954   -2.97464515022736    0.26588843538674
H           1.61316771189162   -1.37137982088697    0.24224249829408
H           0.00565003781498   -1.69575794128047    0.80690106980159
