    26
        -50.46333845  Gyration_radius:  2.64859293675 Dipole_moment: 4.727
 S          -0.82918550879809    1.98494962781347    0.90949657851027
O          -0.11331401206761    1.59088803583063   -0.31464418888235
O          -0.60040566566148    1.02772898709690    1.96772895208512
O          -2.20776387121966    2.32737074259708    0.66984724195722
O          -0.12248784601693    3.34150944274419    1.36857896850742
H          -0.76149743681081    3.99130052640341    1.09424282085193
H          -2.97442495540295    0.80861908698413    0.89571435702400
O           0.50571100294885   -1.35774899322021    1.57451785471410
H           0.11935416060965   -0.57093796986454    2.00806058119109
O           2.51791715570619   -0.99636128398452   -2.21908288463811
H           2.47744779769890   -0.42268231764473   -2.98618574808555
O          -3.10178372946130   -0.14042181938695    1.09199886552660
H          -2.72321028136642   -0.25960845051350    1.96705259364975
O           0.24585790711729   -2.37211417128265   -2.30512375130802
H          -0.36163671880416   -1.83567805623455   -1.75720991554165
H           1.72344756608613   -1.57993952574286   -2.28405487265702
H           0.20227162406786   -3.26448303360629   -1.95833465448042
O          -1.13282821885280   -0.89138672213126   -0.52794501185542
H          -0.11337531179704   -1.51953519597886    0.83466681693332
H          -1.99403070892659   -0.79774961478794   -0.06321268037788
H          -0.80771469807531    0.02403274091615   -0.61416490148792
N           2.04387250567325    0.18976042622413    0.13195495478264
H           2.82346715199752    0.65560491720283    0.58164225664858
H           2.33026168567981   -0.26091545921024   -0.77544058476591
H           1.60087811323484   -0.54333658591249    0.77363424769092
H           1.25317230240407    0.87113468566064   -0.06373789601014
