    26
        -50.46333815  Gyration_radius:  2.64829715559 Dipole_moment: 4.732
 S          -1.35757101804889    1.90107185791499   -0.01991312436279
O          -1.07780564554189    1.48984368053359   -1.37665504622482
O          -0.41080889416819    1.27884416383262    0.91994288362107
O          -2.73042552489977    1.77359603886751    0.39728782723887
O          -1.02813691475070    3.46199141323544    0.05394403731189
H          -1.74095011517586    3.78245149221339    0.59711314895601
H          -3.17623984701629    0.30194511411911   -0.36517638115318
O           0.55687421496021   -0.51357147124086   -1.99749635168397
H          -0.04595571992944    0.25235080437132   -2.07391474198571
O          -3.12237620543997   -0.50831394567126   -0.90923986743525
H          -2.85365838623013   -0.19909815929360   -1.77838187601282
O           2.96205663045797   -1.06825057743648    1.53064468820868
H           2.90516162479621   -0.85170081442371    2.46281546950816
O          -0.83081028110593   -1.27905533051707    0.19524128637009
H          -0.70144972747510   -0.40920886969742    0.61701433367978
H          -1.74854885344454   -1.24187758388157   -0.15511319617069
H           0.09689179719568   -1.08372780624293   -1.34914507331185
O           1.08174604949888   -2.90995805031137    1.16364542934938
H           1.18498547108147   -3.58200588624723    0.48810152462960
H           2.33218526849457   -1.81706479690936    1.39463740346452
H           0.29831710911439   -2.38303144679553    0.90773518174531
N           1.91169367381804    0.73701684856989   -0.14146188076242
H           2.49919505423425    1.51747086397220   -0.41114177815193
H           2.41576533220854    0.07434416489257    0.50294175083132
H           1.02806658550846    1.07334620119931    0.34246150204718
H           1.55179834185323    0.20259210514557   -0.99588712967533
