    26
        -50.46306755  Gyration_radius:  2.54505431932 Dipole_moment: 3.895
 S           0.55833288591678    1.62926694645575    1.44912057293367
O          -0.44032325872571    1.51686834127173    0.40413504176352
O           1.89760912440624    1.31224755827066    0.95434747020602
O           0.23367501252901    0.86455411092717    2.63649220747745
O           0.58294295508223    3.14983960070222    1.88189760950333
H           1.06291814204093    3.10250540709619    2.70190532078550
H          -0.02100922172261   -0.78698327450069    2.48882201533016
O          -0.05924244240386   -1.69440284588947    2.10665598197844
H          -0.80332623221797   -1.67033084588892    1.48668025925588
O           0.49084677639281   -1.45574268550429   -1.71998607201411
H           0.21093303028537   -2.10722670066335   -2.36396094133712
O          -2.73000157557308    0.16781799541049   -2.26387315832182
H          -3.37619045285451    0.86536790820392   -2.14843726949562
O          -0.27617940054744    1.26459097447015   -2.29381381283469
H          -0.28413233828397    1.54897793122354   -1.36192831055036
H           0.27336897492208    0.47078696139016   -2.31266336175177
H          -1.87028372516979    0.62295150951375   -2.42892001186290
O          -1.49728288612045   -0.84988418693701   -0.11110862389515
H          -2.15900654950524   -0.64281498131172   -0.80525143204328
H          -1.17675009542293    0.03374629242127    0.17659877534681
H          -0.30154605384297   -1.28059507430242   -1.13722703535418
N           1.96505658831675   -1.23299882660072    0.52463897681953
H           2.85823177187250   -1.68375761121750    0.68800527997376
H           2.03469464253886   -0.17321386516719    0.67497932728385
H           1.61784826481722   -1.40431336607309   -0.43888057517846
H           1.20881607319353   -1.56725727331429    1.21177176624012
