    26
        -50.46306762  Gyration_radius:  2.54499421933 Dipole_moment: 3.896
 S           0.95954406724483    1.93476194309069    0.63314868674770
O           2.17419287463157    1.18463738019903    0.31558922745135
O          -0.05947195567996    1.08405518938774    1.21623382096582
O           0.48811886721510    2.69404714279979   -0.50763216162626
O           1.35380309999571    2.98658116090958    1.74597185148862
H           1.82454542353886    3.63424363265093    1.23220145262569
H          -0.15572159592659    1.86730231745425   -1.81760892475354
O          -2.65785983682198   -1.59068629143719    1.73527730509756
H          -3.11667996727888   -1.09721735904869    2.41604622872859
O           0.09529055519181   -2.23268371349919   -0.57089818466669
H          -0.34420809044221   -3.05656462382694   -0.78435794700262
O          -0.41673439467646    1.13267387547459   -2.42021450795930
H          -1.14659514403684    0.68691737868085   -1.96505242992318
O          -0.01478879013702   -1.44490066461639    2.20195108775563
H           0.33016833535288   -1.88176576335398    1.41291668847306
H           0.06408758433008   -0.49055390939263    2.02205625488661
H          -1.71816577420555   -1.64600908906121    2.03088314932707
O          -1.65857810723920   -0.28420144962334   -0.38229931465393
H          -1.13149947666861    0.32068706234542    0.18565170405581
H          -2.26617525214061   -0.72562623870504    0.24902102235207
H          -0.62079586646781   -1.53743569995120   -0.52597008932453
N           1.62572859009958   -0.32694970334423   -1.70480427361186
H           0.82637201019207    0.23236069672860   -2.15629246994062
H           1.94836573687818    0.26477856146847   -0.87033340134944
H           1.22762113576088   -1.21453257016474   -1.34131269355919
H           2.38943598119185   -0.49391929512537   -2.35017208154642
