    26
        -50.46306582  Gyration_radius:  2.5453198374 Dipole_moment: 3.926
 S           0.40324576126900    1.67268051972227    1.45036527038946
O          -0.50040179294184    1.50914346396562    0.32848111038212
O           1.78735722945094    1.37934436712360    1.07929887506923
O          -0.00256844883563    0.92842639686120    2.62548706558615
O           0.35537784734872    3.20413082628854    1.84058822739884
H           0.80037208944630    3.19840564886699    2.68144774886791
H          -0.20832528091956   -0.73138348749174    2.49835794895950
O          -0.19477145917149   -1.64783722786240    2.13654887231785
H          -0.88662088434029   -1.65644077725580    1.45848043782499
O           0.66143820584001   -1.48329900922591   -1.63895689394211
H           0.45405533035816   -2.16346090346236   -2.28067533190733
O          -2.54695685554901    0.05815174537394   -2.47499903753620
H          -3.21174609964679    0.74528529864450   -2.41728741898728
O          -0.11871073506195    1.20379820911221   -2.34203765508531
H          -0.20594742285520    1.50777499243286   -1.42048335581576
H           0.44637225806995    0.42197949529603   -2.29943920267159
H          -1.68562958909081    0.52634640162460   -2.58523781923089
O          -1.46458134857585   -0.89088823011822   -0.21313579215083
H          -1.18621771029371    0.00559651970922    0.07874413844982
H          -0.18056100678002   -1.31455802587732   -1.12798310797282
H          -2.07313084446466   -0.71293606746668   -0.96195917725947
N           1.94058603529938   -1.17212687522769    0.71215632787890
H           1.67562300617598   -1.37152577622439   -0.27216317670623
H           1.97615706154516   -0.10818217089171    0.84381209302347
H           1.13877366247808   -1.50915916625441    1.34386042982712
H           2.82681098126711   -1.59926618767138    0.95672943331103
