    26
        -50.46797327  Gyration_radius:  2.47238519058 Dipole_moment: 6.428
 S           0.14348538258428   -0.61726342931544    0.94018185793759
O           0.58517279214861   -1.32083926928458    2.24090466475702
O           1.33816290343583   -0.12855171966077    0.25110409916765
O          -0.50912427445514   -1.64301251278713    0.11583894060524
O          -0.77144490146762    0.45920999653402    1.27117508930176
O           2.61246613637133    1.50182326279703    1.90485799566714
H           3.50196902546458    1.15883599050553    2.00414477983301
H           2.17885793261682    0.94697609778273    1.22160216975194
O           0.87425020286835    0.90015083255067   -2.13831909846162
H           1.26727652429217    0.64439753190910   -1.27528526411164
H           0.32076446950482   -0.40046868207543   -2.47938321124943
O          -2.69258438471351   -0.89242667486819   -1.23030247576515
H          -2.00637049846746   -1.18287016973993   -0.59266915636114
H          -3.52184038872773   -0.90153071574007   -0.75029307897934
O          -1.42072100630060    1.58483795085972   -1.06670380251986
H          -1.19179183332922    1.36154449752376   -0.14329879317485
H           0.05221745480985    1.38802763632726   -1.87446232599635
H          -2.05177011632191    0.89618128301601   -1.32618204879123
O           0.58896493965808    0.87377055604956    3.54772004965975
H           1.38954476457887    1.27931388293441    3.15368198010986
H          -0.13668549331445    1.11973314111555    2.95384046783735
H           0.63331988321632   -0.56569861728158    2.90208141601397
N          -0.17152879292787   -1.40087316237056   -2.45851087409058
H          -0.18051575381354   -1.64616526146302   -1.42348073309884
H           0.31648305328079   -2.09869959015146   -3.00867232447609
H          -1.14855800098203   -1.31640285516750   -2.73957033356870
