    26
        -50.45568719  Gyration_radius:  2.56710966445 Dipole_moment: 1.976
 S          -0.63420020573338   -0.11660307979588   -0.77209648504064
O          -1.18091990475599   -0.96864148184733   -1.93481013842962
O          -0.58071087588476    1.25981053250212   -1.22859580559286
O          -1.48201865858715   -0.28363344713194    0.39368782202952
O           0.73166738596133   -0.62276308629006   -0.48381288073253
O           1.54018223081064    2.07198071540294    1.99560414744262
H           1.61042940530709    1.51819209942184    2.77508803311897
O           1.55052174288747    2.50813386587372   -1.99358350562706
H           0.65723821131562    2.13286434191411   -1.77828068624594
H           1.73346651651513    2.26533997776876   -2.90305544655251
O          -0.23615591732920   -3.13310789468082   -0.97820473492539
H          -0.90244160822141   -1.90663937330319   -1.69225927489933
H           0.47661413704681   -2.57246540335480   -0.64414971777683
H          -0.84645470427559   -3.28041568264804   -0.20944590512908
O           2.48561350621543    1.06493643584270   -0.12651829035418
H           2.26798634592355    1.72861251517210   -0.87732805136226
H           2.18624809475669    1.51227159599156    0.75713986437620
H           1.76673068607452    0.28126687617511   -0.28107998813073
O          -0.99398631638171    2.11145250151717    1.37891956513879
H          -1.08813183925657    2.59012064975744    0.54956171234027
H          -1.25963477171780    1.19504238678750    1.15048663294233
H           0.56351672729388    2.15889365394284    1.80083240826012
N          -1.92028736266110   -3.00659808075877    1.10086532296745
H          -1.88396002244577   -1.99167036598212    0.99006863607567
H          -1.68248022566754   -3.22171131824713    2.06095458078162
H          -2.87883259718473   -3.29466892400267    0.95001216532518
