    26
        -50.45568715  Gyration_radius:  2.5670131727 Dipole_moment: 1.984
 S          -0.92655158115271    0.07441909774488   -0.38950697143122
O          -0.60893262316489    1.10873389174487   -1.35658066695182
O          -2.45725393850462    0.06707947222611   -0.20589120141905
O          -0.48139872707299   -1.23981700268923   -0.81445160313566
O          -0.34385885951780    0.40446442311509    0.93574449776455
O           3.17680173875382    0.66720180359372   -0.33207703597400
H           3.54667059929406   -0.07893773329587    0.14295582396184
O           0.32771920922022    3.45217786684849   -0.79550020945337
H          -0.07571421707345    2.61324775234698   -1.14012958385689
H          -0.40286539995630    4.01379395268735   -0.53008174430183
O           1.61062082985626   -0.35477528762444   -2.15018777604095
H           0.88930768676202   -0.83305759872413   -1.68803318516926
H           1.15776229318961    0.37025772317866   -2.59176782058718
H           2.63961351392025    0.28290876598330   -1.08249330336404
O           1.49194830939202    2.04218758334665    0.96449387888476
H           2.24813588693728    1.53726070444771    0.47058110445122
H           1.13222047118131    2.74261055706451    0.30724836147668
H           0.69063440094753    1.32843362660625    1.01825201808438
O          -2.32236290614572   -1.12695501245427    2.04106021768470
H          -2.58815681023498   -0.41462091413969    0.66985059665605
H          -2.06880406449361   -2.04205535007298    1.75227736828281
H          -1.49136387703075   -0.64554833263095    2.14860534647596
N          -1.40503166690082   -3.34939048589194    0.86024441119269
H          -0.99916154121595   -2.73312952231406    0.15374495536788
H          -2.07532522439121   -3.94706323715414    0.39333628460157
H          -0.66465351259658   -3.93942672393546    1.21830623679613
