    26
        -50.44030459  Gyration_radius:  2.50712509975 Dipole_moment: 3.791
 S           1.32433584278424    1.82285502554904    0.54524502156414
O           1.42644410597831    1.86134307848777   -0.87483268362951
O           0.31829427490249    2.60095370237588    1.18692624778552
O           2.71606125187888    2.28150816581967    1.13995513122729
O           1.22860352979945    0.36730398810029    1.02157017142168
H           1.47702891271458   -0.28832892780300    0.24613754338202
H           2.51266419153634    2.66474501959239    1.98934292267337
O          -0.96162826625371   -0.92812649722879    2.42065091647138
H          -0.06879209570829   -0.58651688740591    2.31817112524937
O           1.83661215154628   -1.13894113704676   -0.88354061331273
H           2.74888748282034   -0.95514497308769   -1.11845989076296
O          -1.86489010353963   -0.18963956667088   -1.34364376134621
H          -2.71875622071066   -0.39155531445827   -1.72855683291511
O           0.45050743275466    0.07065642763045   -2.67416050302736
H           0.77152415557787    0.93052083449278   -2.36593921458148
H           1.27498712583043   -0.76055269642691   -1.64381203694344
H          -0.46485115129975    0.00472355102467   -2.32790629928220
O          -2.06267656980130    1.16555718247582    1.09268070388244
H          -1.34101407202748    1.80479685087310    1.16520220012415
H          -2.03578225477850    0.82186245944642    0.18441666779891
H          -1.53764017796131   -0.20541092466265    2.09538603637528
N          -0.98337217504969   -2.30258513974386   -0.06825221019168
H          -1.55988403209234   -1.02845623262483   -0.86047057352959
H          -0.00575517777797   -2.43993326551077   -0.29419735654913
H          -1.03070090049362   -1.98357607056452    0.90498464023520
H          -1.45020725061421   -3.19805866258096   -0.12689733208705
