    26
        -50.45267764  Gyration_radius:  2.74625587237 Dipole_moment: 5.932
 S           2.80107399557422   -0.43298467476983    0.90069096466868
O           3.80980271827031   -0.62632223151247    1.88914593427047
O           2.21937988572303   -1.66238187223060    0.35802357463550
O           3.55458507565853    0.25309546695590   -0.36466292137276
O           1.74925168992843    0.52799049546367    1.22727390359767
H           1.41768583386921    1.29461940616236   -0.18041982201099
H           4.45291734942255   -0.00938212759489   -0.19399761176788
O          -0.90311517960350    0.31782218616573    1.59803459973504
H           0.04588292641916    0.45691538328278    1.77191733043148
O           1.14723035575538    1.52717090161558   -1.10400776911874
H           1.97462592396485    1.63427590874387   -1.57688349366801
O          -2.60602893838150   -0.31708603669253   -1.53444198547054
H          -3.44002174535441   -0.14276708973616   -1.97241719031590
O          -1.53393972316955    2.01342279670278   -0.36739479050305
H          -1.19787526811369    1.11288108217895    1.09693654769359
H          -0.64900228907455    2.16066625322999   -0.72551788327117
H          -1.93625336109193    1.31618077829738   -0.91204679811037
O          -2.92094862369516   -1.40410886217818    0.95409713074039
H          -2.98219760003836   -2.19666888405304    1.48797676174590
H          -2.32319930635662   -0.79672582903437    1.42258119140983
H          -2.83059919808153   -0.74094035017276   -0.68565263980749
N           0.01080098277018   -0.88272156959615   -0.64403720856913
H          -0.57635087662057   -1.46744543562302   -1.23084133648978
H           0.30710298082304   -0.02254330801100   -1.14340759923915
H          -0.50816895447330   -0.56366233637191    0.21249014125763
H           0.91736134590848   -1.34930004114169   -0.28343904046860
