    26
        -50.45267748  Gyration_radius:  2.74609400676 Dipole_moment: 5.944
 S           2.20280548636460    0.67554905198526    1.88049124971927
O           1.14283253681025    1.68527347997106    1.91687948373554
O           2.93969776490789    0.52847846948706    3.09179675510113
O           3.26476298085975    1.24082556184453    0.78837535347486
O           1.71263854067772   -0.55683491864834    1.26619857462651
H           1.86947949550773   -0.32445574796201   -0.34649105718822
H           3.91887583752517    1.62190445845950    1.36449000468515
O           1.79800502534928    0.00093771545061   -1.27878026461869
H           2.60469315454803    0.49935993462420   -1.42191903370308
O          -2.34545725279120    0.31689781921194   -1.90728288044210
H          -2.97031487232171    0.19513794752035   -2.62309267401925
O          -0.74145133787690   -1.52901216247804    0.76535725959362
H           0.14803698380031   -1.41871661644341    1.14846433370765
O          -3.28965779379006   -0.58791153758992    0.49367551481009
H          -2.50572462724566   -1.10880203805996    0.73830527211426
H          -3.75402764397553   -0.39045168555618    1.30747908588606
H          -2.79575115194942    0.00596653131629   -1.10043736308473
O          -0.37525422514600   -1.69850121366254   -1.87540907378555
H           0.49454382910642   -1.28210088769121   -1.93134508487259
H          -0.59446018421624   -1.87202526981388   -0.14615614403103
H          -1.02461453581510   -1.00050834293142   -2.06434460776270
N          -0.36732513157934    1.02779501274164   -0.02653595553639
H          -1.12374838535367    1.61082501424403   -0.37136753536855
H           0.33054744101041    0.83503474099255   -0.77023048914178
H           0.18652771533449    1.43267858458498    0.80940748588140
H          -0.72565964970687    0.09265608841317    0.29247178020702
