    26
        -50.44030460  Gyration_radius:  2.50692883543 Dipole_moment: 3.798
 S          -2.09627968593603   -0.90848699481564    0.38637103031804
O          -2.73281112560102    0.28095571470546    0.84392209964165
O          -1.98523124869297   -1.13657878457172   -1.01514273268342
O          -2.88613646841270   -2.12763024869301    1.01125377346092
O          -0.71750234228359   -1.03883444102442    1.04693387322622
H          -0.03487323649834   -1.47704443874164    0.38713509421701
H          -3.32017954783784   -1.77553819505568    1.78406316758196
O           0.79764186603021    1.00341859917311    2.44884770164593
H           0.30320933579755    0.18322214667410    2.36445620279253
O           0.70926058516824    1.66039719899849   -1.43550213671177
H           1.11933626616974    2.42058074802849   -1.85020486105008
O           0.85790158328397   -2.09260985670620   -0.58820995990182
H           0.53007379816729   -2.97384792824835   -0.78092863191129
O          -0.86382598125913    2.34045429350529    0.77246145322372
H          -0.42540676612621    2.16277894996446   -0.07609327205564
H          -1.63490931730502    1.75841828049321    0.80946247220234
H           0.24616944662444    1.66917253236176    1.98781816202953
O           0.16388278257718   -0.68472941121686   -2.61925645095257
H           0.36525049771240    0.23181574362205   -2.33357004670061
H           0.68939516826995   -1.54582484339703   -1.43061742307944
H          -0.77267992616634   -0.81078007100481   -2.40867954389641
N           2.43963935689298    0.53126059665914    0.17649794794913
H           3.40925013981952    0.81779973924423    0.20786886047499
H           2.02066027885623    0.72966494804562    1.09096828954493
H           1.40782125278062    1.25398615494366   -0.82152113979686
H           2.41034329787240   -0.47202042297372    0.04166608004204
