    26
        -50.45454418  Gyration_radius:  2.42331330395 Dipole_moment: 8.705
 S           0.30275897069957    1.11730477094647    2.08021989743519
O           1.18436339719420    0.55591315670956    1.01326736904506
O           0.67709375863393    0.61868195494942    3.36561485903969
O          -1.14427164057637    0.52629497534262    1.74192257034361
O           0.14757508211170    2.53599800213553    1.90149972017501
H          -0.54296178803238    2.36165473405365    0.45800055162523
H          -1.12746860920631   -0.43344184168293    1.82372835514165
O          -1.44090843966669   -2.06430475106235    0.84871370359821
H          -2.27581548171041   -2.49688456052305    1.02923785808188
O           0.88541971417256   -0.88381468325325   -2.32294168691813
H           1.28197266206957   -1.02132953183543   -3.18337317045905
O          -0.98555295422938    2.26154033097526   -0.42346560231101
H          -1.77238380734213    2.80691001434438   -0.37282958378519
O           1.42389808479801    1.48216329529611   -1.45140040018467
H           1.52517126982876    1.25420964257547   -0.50224507869617
H           1.12862796213907    0.05799493970738   -2.04658300847814
H           0.60734666984737    2.00308049712932   -1.45725180673168
O          -1.61726245140392   -0.34508705694625   -1.10851792526038
H          -1.45621874010732    0.55737192765169   -0.76630386206739
H          -0.87264834079224   -0.54067780975255   -1.69460109968241
H          -1.61270175866121   -1.41896356765517    0.10257581174130
N           1.15233816353185   -1.82857067216911    0.19138415501805
H           0.24828126127023   -2.22579069329995    0.49304518630903
H           1.13708408642024   -1.66766059345397   -0.83830629253063
H           1.20870640027445   -0.81321179103851    0.63787077049756
H           1.93755652874073   -2.39938069914639    0.48073869905371
