    26
        -50.45267682  Gyration_radius:  2.74616714828 Dipole_moment: 5.949
 S          -0.41770727000328   -1.33855481352193   -2.62368845210443
O          -0.23424567255518    0.10522663201904   -2.78548358775865
O          -0.00349041121630   -2.12911752113473   -3.73514617034928
O          -2.02744061160228   -1.53476373365708   -2.52334492437788
O           0.05621693733629   -1.76888580277628   -1.30966285967653
H          -1.19291789396512   -1.48525683191544   -0.29075666388150
H          -2.22361714592495   -1.81128842863396   -3.41218321088952
O          -1.90742518562786   -1.07497336738284    0.25808554295978
H          -2.71748146164449   -1.27116760933306   -0.21625701232809
O           0.01655501786261    2.13337594617210    2.16708600793449
H          -0.01535778713286    2.58537527821383    3.01109861087636
O           1.65847973781034   -0.65816692787957    0.53891657475150
H           1.32174377931512   -1.25799509121990   -0.15169279614455
O           2.56301161450156    1.82643740664080    1.21795013730508
H           2.49741956922170    0.87826773825809    1.01188962398867
H           3.29229718096193    2.17079298040936    0.70180341745781
H           0.95483438836171    2.11978549000348    1.90355751750680
O          -0.19506344702957   -0.66082452941081    2.46287615899733
H           1.13944401822507   -0.87154026810369    1.34835566616754
H          -0.25636497712908    0.30899098347474    2.48032736499186
H          -0.94761787314394   -0.97063594734741    1.94252733028782
N          -0.27755268542533    0.98156340146789   -0.39370074041828
H          -0.31989080481284    1.96863589466370   -0.15957491023964
H          -1.08809786257710    0.46471216211861   -0.00248938478846
H          -0.25836002642587    0.75663644954844   -1.45134356452108
H           0.58262889264437    0.53337051935474    0.01085031427284
