    26
        -50.45267852  Gyration_radius:  2.74590908126 Dipole_moment: 5.929
 S           1.57561930844542    0.41657497084211    2.48620304762230
O           1.84325981970740    0.23770995947943    3.87479928132058
O           2.22455592685095   -0.55111318302254    1.59907458091550
O           2.24638681444056    1.84275205377135    2.09144408420132
O           0.17304495647314    0.59003929076946    2.11331468287520
H           0.18298544874470    1.69465965503774    0.90511670943221
H           2.88859684082130    1.93049617050889    2.78775447812149
O          -1.53811699190717   -0.84745895076519    0.62245860463078
H          -1.11476484799559   -0.42129781854568    1.39011674875038
O           0.32203057700260    2.18356979673097    0.05553799008838
H           1.00457207585042    2.82636863831485    0.25707969271016
O          -0.68779097874384   -0.64527364550027   -2.88999479934386
H          -1.10083560549532   -0.65808322452226   -3.75424690644416
O          -2.00802827968824    1.11505629233011   -1.12795555948946
H          -1.37058249781817    1.76237519657851   -0.79982123401735
H          -1.56852476955572    0.64303478542034   -1.85498228432519
H          -1.96322571610203   -0.11680476677036    0.11704242204947
O          -1.43680076906775   -2.75729637757875   -1.32521470405909
H          -0.98496747599724   -1.45614460751815   -2.43711340259676
H          -1.22897295839010   -3.64269867107308   -1.02539954679318
H          -1.66331464001003   -2.24014540226205   -0.53338190065394
N           0.85733891928256   -0.39762362831894   -0.54476132340671
H           1.53303428559426   -0.55309043040974    0.28517637612361
H           0.76169216528799    0.63037632667291   -0.65147633966873
H           1.13180285950974   -0.83614036646536   -1.41850326871927
H          -0.07899447725349   -0.74984208375743   -0.22226740933251
