    26
        -50.46163599  Gyration_radius:  2.55670066827 Dipole_moment: 2.229
 S           1.17841817673781    1.93971155331737    0.52001354752659
O           1.87322411465975    1.01169575273971   -0.34139829057878
O           0.58233832259168    1.24023668749213    1.65725557975003
O           0.22472079449464    2.80228218587478   -0.15210621002223
O           2.27932218069526    2.91859803656708    1.12090900598599
H           1.76402532501886    3.68701671948395    1.34453859655107
H          -0.94688519085640    1.88425212648266   -0.73987208844647
O          -1.54810077403452   -1.77732049705048    2.20019553284064
H          -1.78321444350199   -0.97572800987389    2.67239287135049
O           0.45626541310252   -2.04823192860624   -1.30860710838950
H           0.98444506459719   -2.68558671640929   -1.78985458178197
O          -1.61710925397811    1.29875635627208   -1.17728158914285
H          -2.32772147282414    1.87642899135498   -1.46079353739895
O           0.56562271120014    0.23632247447534   -2.50231863777966
H           1.17535418820440    0.62333886948201   -1.83917541403954
H           0.50548299177821   -1.19202025083286   -1.83820636443537
H          -0.29734263660435    0.63192976899110   -2.29886410239353
O          -2.08884471359931   -1.29632869827503   -0.33930351636150
H          -1.35945967401654   -1.74212563710626   -0.79135741647423
H          -2.00197552231591   -0.35707871023197   -0.57640433292110
H          -1.91327951617691   -1.66778577131327    1.28536596031192
N           0.88209337404612   -1.29982763749855    1.27150115995297
H           0.83994630971385   -1.54933070429239    0.25727098632207
H           0.85369504059572   -0.23580385648701    1.38580639618644
H          -0.00166931202735   -1.64846376675500    1.74049762472378
H           1.72064848249724   -1.67493732780587    1.69979591866395
