    26
        -50.45454415  Gyration_radius:  2.42330580351 Dipole_moment: 8.702
 S          -1.36284960836265    1.90125238809404    0.44160023523928
O          -1.83460051319608    2.44960879696116    1.67360176727464
O          -1.54641399501820    0.41926195746639    0.41289172639565
O           0.22381367609984    2.09877309447011    0.40793021935742
O          -1.81027424657646    2.48169251698690   -0.79597538231807
H          -0.72523243700917    1.66901267357697   -1.66402106570220
H           0.61278739341940    1.71985945812983    1.20370648874356
O          -0.04797632630651    1.18612239644111   -2.20346988470667
H           0.35980113796144    1.85702198924642   -2.75370566375357
O           0.32492434879097   -2.56396720670645   -0.53063194985090
H           0.30227331559532   -3.46256509421045   -0.86006340530454
O           1.88885884500879    0.41743531525759    1.82089700942190
H           2.73425030104122    0.77181098915043    2.09743714472489
O          -1.43892660858537   -1.11933116637723   -1.73435515227036
H          -0.38097575159051   -2.05567182413328   -1.04632667147630
H          -1.70130351457807   -0.56457592671818   -0.96847439953838
H          -0.97790192044367   -0.48675704809164   -2.30484899415923
O           1.84731918978939   -0.18172071921724   -0.72014051261535
H           1.47607290389018   -1.07377454675784   -0.77117248658007
H           1.20924008297662    0.39857799273884   -1.18227603706595
H           1.96608914046472    0.23604939035570    0.83915416234538
N          -0.21794046165511   -1.24715676906661    1.76211470444425
H          -0.84805099784557   -0.48674591365081    1.25391989971491
H           0.63532109452735   -0.75434287901415    2.07053276863578
H          -0.71367817084805   -1.67561796402599    2.53463118319704
H           0.02537310245268   -1.93425188090620    1.01704430585153
