    26
        -50.46163607  Gyration_radius:  2.55686105175 Dipole_moment: 2.234
 S          -1.29633106273841   -1.92547385496741   -0.18892825998703
O           0.04497252231361   -2.00766766949350   -0.76513873408878
O          -1.95127073814511   -0.70396666435958   -0.59499785395371
O          -1.29283302251139   -2.17209745042389    1.24092044216135
O          -2.13087283408726   -3.12405424334245   -0.81990339150920
H          -1.90786718287488   -3.84856698466082   -0.24422639848845
H          -0.41845727227789   -1.02826745321166    1.93960617369256
O           3.04329094446844    0.20063793152360   -1.04882210188698
H           3.18712899980164   -0.71167459887193   -0.78851005348429
O           0.04681376204348   -0.26523650840003    2.36926671617415
H           0.19684719511021   -0.52585650550534    3.27955538536031
O          -0.31534304034949    2.39952467159549   -0.50902099982458
H          -0.74077579260467    3.17006587742879   -0.88596090549956
O          -1.91707452087207    1.26570340377806    1.16559797049515
H          -0.96810175407681    2.02292214855795    0.16040094129895
H          -2.13636812063461    0.53114688415067    0.55429336196674
H          -1.31262771774873    0.86990451072148    1.81411611586678
O           1.83045242461849    1.34662791849403    0.99783773176008
H           1.20275716633216    1.93706656499707    0.55915653378427
H           2.75563565506017    0.67313142204670   -0.22645859652896
H           1.28418712729146    0.72799644445161    1.51245154244179
N           0.54915475078095    0.24675775469060   -1.92859545245857
H           0.23988412442949   -0.67443826600096   -1.47930438223946
H           0.10091221167487    1.05124429705244   -1.43390902706877
H           1.59502686052231    0.29238635595950   -1.76569606362629
H           0.31085935446075    0.25218401379473   -2.91373068435578
