    26
        -50.45267662  Gyration_radius:  2.74613822033 Dipole_moment: 5.955
 S           2.16287013848849    2.04276867079292    0.01839378984013
O           2.39097622985073    1.03492637214857   -1.01920723102213
O           2.70633798598470    3.33087696388449   -0.25977994244415
O           2.98334455047241    1.49118063668841    1.30775674383885
O           0.77163075780159    2.00899041783485    0.46532396968394
H           0.71286582430792    0.82164289994341    1.59040747635888
H           3.77276972506925    2.01877005420100    1.24891316167778
O          -1.45173611333262   -2.64484680240966   -0.38228871430877
H          -2.04828185481843   -3.38791246550027   -0.28393194639842
O          -1.48335046282108    0.97604354874065   -0.56732479436312
H          -0.81794748296465    1.61776356756306   -0.25816853617808
O           0.74154245753875   -0.04088339454640    2.07549908679346
H           1.56292517777699   -0.01153715284173    2.56962360143202
O          -1.96201954417507   -0.62615788020828    1.51626405795199
H          -1.80405152575867   -1.43466241259329    1.00060388000799
H          -1.15284138910215   -0.46216367033249    2.01766686459838
H          -1.86504920434339    0.57913296845416    0.24931095533394
O          -2.19899729382799   -0.93427046825996   -2.38148627827043
H          -1.78243570765580   -2.13205245689858   -1.14224401926801
H          -2.12907836954830   -0.11306971037316   -1.86524359091733
H          -2.16501286766794   -0.68306392419869   -3.30485230263469
N           0.61543317412983   -0.72732361013247   -0.53673164645626
H           0.69534784324774   -0.81984039654185    0.49391488695303
H           1.42343211671097   -0.07794546526532   -0.84497295857052
H           0.59092313240471   -1.63590216671476   -0.98930758730233
H          -0.26959728773431   -0.19046411345428   -0.71813893635119
