    26
        -50.46163604  Gyration_radius:  2.55692586306 Dipole_moment: 2.233
 S           1.34212983445525    1.22136523167096    1.46017761461465
O           1.94104885647280    0.90820610685783    0.16362687948524
O           0.72356755083447    0.04828608196433    2.03217795997868
O           0.49079743868707    2.39473116811355    1.39977383171370
O           2.54228038812344    1.62221581747555    2.42463128624024
H           2.65247903858382    2.54816703725538    2.23334226239205
H          -0.71558768618576    2.07946122243682    0.39657323684894
O          -1.32663078891093   -2.08176489343237    0.14158142145795
H          -1.63299429822338   -2.90634362661330    0.51978633439862
O           0.90506232326616   -0.80912722106606   -2.98788004683107
H           1.36392546928137    0.02949455877913   -3.07089381776729
O          -1.50578291543863    1.84150029595335   -0.15320675332349
H          -1.96256459460539    2.66561656134864   -0.32992244997478
O          -1.46912492898632   -0.23095581287083   -1.98753185631422
H          -1.62371408027340   -0.97346037042875   -1.38756189471723
H          -0.03804221333408   -0.58124441988200   -2.78526286946090
H          -1.46134528275818    0.55940001312674   -1.42080535967871
O          -1.89545704962666   -0.13766860936665    1.73924838855051
H          -0.97102683803035   -0.04155875453421    2.05162993253452
H          -2.02687076883998    0.61108514922513    1.13537384089859
H          -1.60824338544166   -1.36004222334720    0.78641501104642
N           1.26262283039932   -1.50808272695116   -0.46204584502907
H           1.21528047862485   -1.40453957020078   -1.51543175543808
H           1.54863404795063   -0.54115015014944   -0.10232213900845
H           0.30880483275799   -1.75031004358175   -0.10949194495671
H           1.94075173122023   -2.20328081178274   -0.17198125766452
