    26
        -50.45568728  Gyration_radius:  2.56656244546 Dipole_moment: 1.975
 S          -0.48389961454432   -0.83253658706712    0.31005682051300
O          -1.73984577328590   -1.50700499866582    0.89664710801425
O          -0.93513794152331    0.44600882650940   -0.29538805949702
O           0.46818656017850   -0.56980677394779    1.37326282718883
O           0.05031642496590   -1.71682545386210   -0.70896005135022
O           2.39452583265815    1.27140403626970   -1.80575898838390
H           2.58249787299279    2.05066372020605   -1.27980868334422
O          -0.21117664215631   -1.40759915352452   -3.26229984941695
H          -1.06969703301624   -1.74668321667762   -3.52205053866437
H          -0.08254121734917   -1.66944926443094   -2.31353487652128
O          -0.02337608161068    1.00895687394260   -2.51012624439214
H          -0.08456397310904    0.09889344024669   -2.97934804010873
H          -0.46235917401372    0.81508058954696   -1.54880406230322
H           0.97811801790342    1.16617580368238   -2.30375616056213
O          -2.66069438469179    0.68523309089538    1.81257044260004
H          -2.23178290594767   -0.74663124902883    1.33941122854959
H          -2.04408068143107    0.84456636780244    2.57376654874830
H          -2.23542714403662    1.08445023835382    1.04204408056678
O           2.59602538559070   -0.75075480761235   -0.17048342796683
H           2.55056701278983    0.48581313524951   -1.20767106640072
H           1.90880956902327   -0.64120117463419    0.52116100443623
H           2.32286744949812   -1.54426172000180   -0.64104858577897
N          -0.64816051264917    0.85282527325265    3.57257716435238
H          -0.70441098507563    0.28659528438943    4.40969193070356
H          -0.14509412756992    1.69917307904496    3.80761309956901
H          -0.08966594359917    0.33691462007469    2.89023637944986
