    26
        -50.44129374  Gyration_radius:  2.40324528979 Dipole_moment: 7.438
 S           2.14573928387253    0.74272280310698   -0.07147697797516
O           1.43809070990055    1.35867246741478    1.04890551517715
O           3.21535699993461    1.51797225494175   -0.60959559809147
O           1.02297093546790    0.66442206892990   -1.24874448385418
O           2.42195187132399   -0.66480929829393    0.17787403558076
H           1.48980974368540   -1.52938693415855   -0.67361417142156
H           1.04621307294829    1.53731736012076   -1.62771063420775
O          -1.87705366882387   -0.72595616011578    1.18312827808710
H          -2.44142627525089   -1.41335610771677    1.53858069471884
O           0.88161876969582   -2.05855683863572   -1.27974961088150
H           1.29777533712142   -2.01596474158503   -2.14299372940647
O          -1.50647194904667    1.52126938089318   -1.89473723004101
H          -2.39623738140581    1.81467446356439   -2.09875892130276
O          -1.07165552170512    1.99089517060160    0.61517142930459
H          -1.51079096760477    1.24934939555180    1.04904013445711
H          -0.11113032912700    1.86600962383721    0.80200760307906
H          -1.31137039272182    1.82506233563261   -0.95858216592034
O          -1.36969086621268   -0.95016600812166   -1.28696097529540
H          -0.40270932301478   -1.37309456975727   -1.32024309801614
H          -1.60619486589478   -0.87757567249011   -0.28066177777273
H          -1.32986359626591    0.01958096464954   -1.63090042185261
N           0.45327907648892   -0.93757654184215    2.19936277358117
H          -0.93482327395385   -0.84246893693678    1.63400584413575
H           1.01884557536204   -1.66867075354476    1.78298147430217
H           0.88340945322703   -0.05704222273941    1.88861876975171
H           0.55435758192941   -0.99332349350380    3.20505323389635
