    26
        -50.44412402  Gyration_radius:  2.40818842831 Dipole_moment: 7.595
 S          -0.32851479571824    0.74431864662607    1.83975231984029
O           0.32594299106938   -0.08072454309382    2.82800721567316
O          -1.59054328235394    1.30058763180472    2.23204594007226
O          -0.65229473507371   -0.26925799040287    0.60475878452534
O           0.57925584930775    1.68785406179995    1.18405516720874
H           1.48798800844965    0.89046827510850    0.29458760680221
H          -1.26828419548541   -0.91247179876709    0.94457177781757
O           2.08186882176387    0.38116039247242   -0.35333337903404
H           2.66186914575554    1.03451449049827   -0.74813892205938
O          -1.61952518516053    0.36672275440076   -2.15653214521727
H          -1.59116360621956    0.83785034998167   -2.99121816784308
O           0.15217564529394   -2.88455566796558   -0.16765936937893
H           0.54800821227587   -3.72025343201165   -0.42152116654081
O           0.46737398373827   -0.98070580737910   -1.80383546304898
H           1.10237231476799   -0.40030958407653   -1.25045061031062
H           0.25506826925584   -1.78181326476740   -1.17537434741480
H          -0.43000950151334   -0.43699688231637   -1.91267862582800
O           1.79434825573341   -1.76032696334517    1.47929116428086
H           2.25070689630328   -1.12209813638467    0.91682696529964
H           1.27425379357444   -1.20318690505092    2.10844041723683
H           0.74367724606346   -2.49855353923737    0.55320657136727
N          -1.67135852157426    2.25943953811651   -0.38054981415276
H          -2.03948559945844    3.17841216038619   -0.59716128999875
H          -2.14585003490554    1.92396665706559    0.45632648450676
H          -1.67856076825168    1.07842337203764   -1.41970384676354
H          -0.70931922763267    2.36753617449660   -0.06371327705974
