    26
        -50.44412408  Gyration_radius:  2.40811698459 Dipole_moment: 7.597
 S           0.01499130010656    0.82467241528907    1.83480643273469
O          -1.16213866291936    0.91595657715831    2.64848085725962
O           0.87439654449019    1.98535040848932    1.84528155340157
O          -0.51305167072693    0.71614840328037    0.29646519572762
O           0.74833203126606   -0.43672529132265    1.95836808457973
H           1.48891891673252   -0.65291341753869    0.67105530358914
H          -1.02834605172125    1.50202682250505    0.13666223834766
O           1.95958745548579   -0.84905700368258   -0.20755061641438
H           2.43074074499769   -1.67350720045227   -0.07553674548504
O           0.20470152994411    1.86287235714968   -2.20434368070674
H           0.56868220630301    2.20179298239914   -3.02419961573152
O          -2.02134094831121   -1.50321822795305   -1.03066628549868
H          -2.17187178101889   -2.41988875109550   -1.26844586018800
O           2.10200418882903    1.96987466314602   -0.45447249781621
H           1.69816874612714    2.10751112711875    0.43701541280192
H           2.41974171802099    1.05850627062522   -0.43425066523634
H           0.91373451374950    2.00392057180056   -1.50017890659118
O           0.13457225780847   -0.65777248748970   -1.99575700462875
H           0.84763223412961   -0.77614338663172   -1.27196070093512
H          -0.78320273368370   -0.96667671615506   -1.57697309937871
H           0.07420337391854    0.37348953900453   -2.11569259056738
N          -1.78106133523773   -1.56734042359557    1.55319874121997
H          -2.06976780046583   -0.67054045219847    1.94123151568098
H          -1.95619284535012   -1.47253211013927   -0.00694587806979
H          -0.77937894582196   -1.57829539927297    1.73777712892299
H          -2.21405500665940   -2.29751128044422    2.10663166298492
