    26
        -50.45568697  Gyration_radius:  2.56642188687 Dipole_moment: 1.988
 S          -0.60623123006685    0.12319329928975    0.80167283127836
O           0.14412338744361    1.36361719951067    0.73680045015219
O          -0.96321213772778   -0.18870034499923    2.26854015032907
O          -1.84855779658663    0.18531464567379    0.05429678713067
O           0.23324618059811   -1.00404532968653    0.32249526628626
O           0.34654412253365    0.18997287627553   -3.23299864451718
H           1.28464568736168    0.38353850470513   -3.27487853428862
O          -2.76087585684068   -1.66224427175956   -1.50717378077296
H          -3.20225305241390   -2.32211467622610   -0.96923521187227
H          -2.55099344634609   -0.90356250422804   -0.90253418210758
O          -0.68324043839611    2.01372210930724   -1.67885353459227
H          -0.28146212439316    1.90400956232310   -0.79050732057003
H          -0.06917344423117    0.93155510024095   -2.70714395504897
H          -1.61061269028265    1.79904248855597   -1.53887871020747
O          -0.26675673978559   -1.88577129265595   -1.91945355903369
H          -0.00558644649003   -1.55059519521409   -0.93260700180156
H          -1.29182541486344   -1.90830054028276   -1.89081223410767
H          -0.00825439973701   -1.09395362617373   -2.53327446334205
O           1.37891515791683   -1.03665301239903    2.80488949847911
H          -0.09713320557364   -0.53040329489345    2.65506266284146
H           1.38547186669915   -1.33775597835181    1.88660207414457
H           1.88923655941363   -0.18538664701973    2.81335771122025
N           2.39617086276674    1.41969006817042    2.47800640947974
H           1.63649908418816    1.57957869489996    1.81396225417347
H           3.26727422022471    1.63286227773640    2.00874258617133
H           2.28404127460194    2.08338989720722    3.23392247057723
