    26
        -50.46306741  Gyration_radius:  2.54480415151 Dipole_moment: 3.908
 S           0.46607801364595    2.10997866397380    0.62609890893768
O          -0.65067237757837    2.39379019575278   -0.27456703929459
O           1.27456038630239    1.00574840093775    0.14775503955540
O           0.01832507895152    1.94163156731153    1.99396502261953
O           1.39892604608249    3.38646099033067    0.60771847108919
H           0.89421407444606    3.99473926536532    1.13713576687197
H          -0.87487608211888    0.57777558425992    2.39061313649827
O          -1.39602382122116   -0.25376903250097    2.30257087386075
H          -0.74559542427551   -0.92843736387312    2.05691428646003
O           2.44184861043836   -2.41240009864961   -0.90828110594843
H           3.35929774414231   -2.21788823332416   -0.71381919827034
O          -1.07809815387050   -1.53918783938936   -1.33828107253633
H          -1.21677966116337   -2.44379409473954   -1.62086414199541
O           1.38334134355679   -0.31813935919211   -2.21941936337671
H           1.44132116175317    0.30398437665564   -1.47177841698587
H           2.14090413430054   -1.70096809976462   -1.52204712495002
H           0.45526439771953   -0.58162890379572   -2.25980338769972
O           0.54224468862944   -1.46598426311763    0.72949987382161
H           1.26614267199882   -2.00100374881250    0.33888582013574
H           0.85524590536663   -0.53985533929516    0.62628301738025
H          -0.46742365196242   -1.58330804653094   -0.54874256957355
N          -2.33490410105989    0.45201946557358   -0.02865222197705
H          -1.70100778527814    1.30100075806160   -0.19559409786747
H          -2.05403016220281   -0.29989139852915   -0.68765884389286
H          -2.10628500044379    0.11923791173903    0.96767399533929
H          -3.31201800614091    0.69988865155069   -0.13560561819216
