    26
        -50.44558841  Gyration_radius:  2.4095179355 Dipole_moment: 4.276
 S          -1.19379845599983   -0.91278642398434    0.95474159154612
O          -0.87459417270959   -1.50184921894100    2.21691135364343
O          -1.32987283909227   -1.83548145933816   -0.16023587886921
O           0.13323039707618   -0.04407402571325    0.55213542351355
O          -2.24725132914436    0.09770296212527    0.97190559160535
H          -2.22440803359227    0.58951920237304   -0.92570229085283
H           0.44844900997422    0.30205816435520    1.38414297505143
O           0.63291115898623    2.84194443461786   -0.03777092712368
H           1.49286037279755    2.86985882957239    0.38504408765167
O           2.17141848242345   -0.78326694375620   -1.38943552081379
H           2.26675032160045   -1.32309307766900   -2.17672024163825
O          -1.78876374881067    0.16915774579902   -1.68369816051797
H          -1.63728200253661   -0.74106230503187   -1.32626327082394
O          -1.00158633588160    2.14641180178831    1.94008055307376
H          -1.62725230430064    2.76353866139417    2.32333200402301
H          -1.53825940539874    1.37551478251313    1.62240090264608
H          -0.01807730567904    2.61247493276594    0.66945980580691
O           0.53462485838311    1.09091767610077   -1.91626373312790
H           0.58889928371507    1.79856586613253   -1.18393340761987
H           1.18292630951442    0.32615380955267   -1.64939106045671
H          -0.44919557409797    0.70801467645625   -1.86281265562959
N           1.31927126487932   -2.61623380725989    0.32749739118080
H           1.59955029593442   -3.58441619425464    0.22140553193304
H           1.85737285745460   -1.40775267694538   -0.66464543454444
H           0.32852030535585   -2.55044608673642    0.09383540979990
H           1.37355657910667   -2.39137133592310    1.31397996053960
