    26
        -50.44558839  Gyration_radius:  2.40951907749 Dipole_moment: 4.280
 S           1.56103828294772    0.84004264111767   -0.16577626265093
O           2.04761914952903   -0.28793573876962   -0.94296111613326
O           2.35488732361519    1.20855050521410    0.96378330010209
O           0.16583098995991    0.27112999624739    0.47236258396997
O           1.10441069305921    1.94066151396923   -1.00909272545026
H           0.05546004125454    0.91159519976355   -2.30602572163706
H           0.01532896321737    0.82260308370136    1.23693926782006
O          -0.62062218490121   -2.51916476782746    0.72585572737652
H          -0.44877861006141   -3.36604533561586    0.30918202450146
O           0.00211369345919   -0.04440652343246   -2.46190847993323
H           0.84422923919567   -0.34612718580525   -2.03881410404511
O          -2.70844102117240    1.04732074689370    0.21774182841867
H          -2.92960031085194    0.86580764502359    1.13274678343348
O          -0.82991137202237    2.91958827688653    0.40022529056300
H          -0.06041448096549    2.62019521186614   -0.14880637606495
H          -0.99395161184550    3.83055540356411    0.15020168803880
H          -2.02751067827185    1.76332850772466    0.23238855891808
O          -1.77145730861433   -1.02439990858108   -0.98008466354315
H          -1.27742639854112   -1.58901235235424   -0.26342928841288
H          -2.16445802115592   -0.21297326908744   -0.50346750929320
H          -1.04139186555139   -0.63565061079563   -1.63838922976333
N           1.84948977395027   -1.82346591745105    1.39549198300740
H           2.54074076139510   -2.53446424259818    1.60494372114291
H           1.95551522062830   -1.08596127943524    2.08213885343781
H           2.10156031584745   -1.39574781118675    0.50438522898640
H           0.27573940587526   -2.17602378903779    1.03036864722104
