    26
        -50.44137234  Gyration_radius:  2.59672281821 Dipole_moment: 6.850
 S          -0.45217035386234    1.61219380861983    2.08129219371482
O           0.37444607650536    1.05140509892766    3.11422213804332
O          -1.76712662174935    1.05238955118966    1.92920794989776
O           0.26211012243483    1.59604812735816    0.77216915197693
O          -0.62204216349486    3.15246818448379    2.42973183913976
H           0.09264399234115    3.30778475995810    3.03958709569263
H           0.94667128894733    0.09199336664259    1.04056041207413
O           1.18029058935906   -0.82887772368571    1.28033235910782
H           1.40075727231491   -0.75984713459471    2.21482944085406
O           0.86609502447632    0.49969101135311   -2.92996379573612
H           0.55659118407923    0.20184872892632   -3.78700369067149
O          -1.55544179107387   -1.10461307517245   -1.21600386694168
H          -0.70909275304686   -1.49602044955304   -1.45512239837179
O          -0.97833179394356    1.33513735287051   -1.33828743746508
H          -0.22416540328153    1.20895843826065   -2.00198249117537
H          -1.36778255417532    0.36030564331410   -1.25596597056981
H          -0.50220872423153    1.53038403528568   -0.40223919149911
O          -1.49164366099321   -1.51156475569354    1.32489944964259
H          -1.78169655849963   -0.63855958278892    1.66060434404618
H          -1.68171190917914   -1.32240482450609   -0.24067576179867
H          -0.52449587051065   -1.50512825379265    1.43245164063079
N           1.55698737867402   -1.70320116626146   -1.48933904451813
H           1.47452957572616   -1.45847551859698   -0.50184847127810
H           1.15123135336166   -0.30269285018471   -2.42398490887847
H           2.55095908752195   -1.70543471907144   -1.69187469796723
H           1.24459719232230   -2.66378805327614   -1.58559629799977
