    26
        -50.44412410  Gyration_radius:  2.40813236683 Dipole_moment: 7.596
 S          -0.93839474385986    0.30428827268313    1.75297372213101
O          -0.63547112824484    1.62595651125446    2.25001694286876
O          -1.06325292269778   -0.72015525014046    2.74847622270455
O           0.35692508606480   -0.10459600164812    0.85189455244412
O          -1.98965973317392    0.29874067782605    0.73368006010598
H          -1.41370158598368    0.91504826481814   -0.50768245457539
H           1.09515507170436   -0.14786810336135    1.45337299840507
O           2.59522686021267    1.25311597225399   -0.25733451590371
H           3.26082821228042    1.79107156239984   -0.68986264256760
O           0.71043690245715   -2.42915495548659   -1.00163612644228
H           0.44634645263983   -3.00021086511876   -1.72520230954059
O          -1.03398625662734    1.28167630968095   -1.37562162683718
H          -1.75690563344499    1.26976350438396   -2.00525090002346
O           0.63069228858292    2.82983503006969    0.31519094798548
H           0.18454980247476    2.49114416882937    1.12945926013278
H           1.87813131319072    1.88934797149536    0.05797113574371
H           0.00214823270763    2.64726897800344   -0.39444794088367
O           1.09477864281603   -0.08088185976295   -1.79689067190010
H           1.76788828721368    0.39041859874896   -1.15922754730998
H           0.95307543175351   -1.05548944915744   -1.41846673041667
H           0.22047761612175    0.42779518259395   -1.64545108252260
N          -1.35782955176692   -2.42424895535882    0.56707915906541
H          -0.06714657432501   -2.42510740019097   -0.33204562913535
H          -1.05492218382722   -2.24888850629994    1.52401625954032
H          -1.87668245015108   -1.57811233649896    0.33849725528160
H          -2.00870743612675   -3.20075732201564    0.58649167165914
