    26
        -50.44558833  Gyration_radius:  2.40943194336 Dipole_moment: 4.281
 S          -0.09303265984329   -1.74106014575315   -0.36159794073750
O          -1.52778687509948   -1.59296504824265   -0.54259463370671
O           0.31843499928125   -2.73879994814541    0.57498251642772
O           0.33838612430025   -0.32005447281425    0.32594508329030
O           0.63218356165399   -1.71908800077015   -1.62831263766579
H          -0.26092781082337   -0.18280811244071   -2.46055399488839
H           1.16089213511145   -0.51420715644365    0.76990784929605
O           2.11959425138072    1.93500290501405   -0.49459839430096
H           2.45552091250813    2.10764237320111    0.38655742034887
O          -1.42147599598195    1.57040845638982    1.66388428688641
H          -2.34343872640104    1.83568846000628    1.66385220134867
O          -1.06168797646135    0.29941241045693   -2.20137912547509
H          -1.49680654336962   -0.36913110575419   -1.61563688050350
O          -0.43935158652261    2.14042535670202   -0.61220014557180
H           0.57759510282134    2.08264380065307   -0.56171252597309
H          -0.72752131282305    1.39459522513254   -1.30354922288681
H          -0.80649710911729    1.86355496311759    0.31778359218432
O           2.85158428190254   -0.57994496477708   -0.94847159083357
H           2.39282151837628    1.01264779821080   -0.72108888970756
H           2.04473706219792   -1.07365153764708   -1.24610205114684
H           3.54302584299573   -0.80213402450756   -1.57441850175338
N          -1.68380581573147   -1.01457765130370    2.19708358877362
H          -0.85814721948755   -1.51115605198676    2.51071281913214
H          -2.46520885198680   -1.34553031716823    2.75121533268358
H          -1.41898866830343    0.58584876728218    1.87455581930052
H          -1.83009864059392   -1.32276197842396    1.23573602549518
