    26
        -50.44412397  Gyration_radius:  2.40814171977 Dipole_moment: 7.597
 S          -0.50773812248283   -0.06727714450985   -1.94530931215059
O           0.38818178585323   -0.54219065187030   -2.95915681765348
O          -1.28231624973550    1.10126408925481   -2.29234541599706
O           0.43589384613361    0.41599572265627   -0.70699611848142
O          -1.29988817944278   -1.11025207376328   -1.29053703028517
H          -1.64634875651087   -0.61346590009165    0.08273098034027
H           1.01180622389116    1.08870508859174   -1.05975521959699
O          -1.85181672158619   -0.32340414756199    1.03433749350174
H          -2.37724100814109   -1.02821858755893    1.41680155307943
O           2.16466740694215   -1.22700289094700    1.10276869167365
H           2.33695608929279   -1.95946800410108    1.69715515022828
O           0.52190070350508    2.64106713754665    1.06071383986567
H           0.42454945627146    3.35961789765519    1.68820016721881
O          -1.79283065461924    2.30015455561535   -0.03436511158377
H          -0.35292814385749    2.58104056610757    0.56118377978122
H          -1.65782782099901    1.96429862110335   -0.95401143751645
H          -2.14254752767760    1.54047525639576    0.44786284849584
O           0.41786662373596    0.31072398799751    2.04037383671440
H           0.55545712939200    1.26409311413596    1.64789660597042
H          -0.47795546224203    0.01353175860756    1.64625303080981
H           1.16128190818503   -0.30213637477262    1.61077419534366
N           1.18708225480270   -2.36707492052813   -1.01468880887069
H           0.17519413865665   -2.28615998222896   -0.93022119902893
H           1.38959329171327   -1.79274499849442   -1.83161826015617
H           1.80868318013844   -1.63416385775118    0.23073803602288
H           1.41032459874283   -3.32740824153288   -1.24878548770113
