    26
        -50.44977064  Gyration_radius:  2.61730249375 Dipole_moment: 5.406
 S           0.70904915273997    2.24607129232044    0.82167844217823
O          -0.56403805829479    2.76727637076737    1.25358793280668
O           1.05545704590521    2.48939247229595   -0.55682565690684
O           0.82026393074002    0.80384716946388    1.14087670010201
O           1.80915583543403    2.95934881925102    1.71417728212442
H           1.32311035625565    3.19818971225341    2.49770980948497
H           1.15417279022386    0.13948014391454   -0.34842956700290
O          -0.73184047550742   -2.92255857319213    1.23175873590806
H          -1.45985263552471   -3.45129666502768    0.90030023424815
O           1.14623341846755   -0.15058456480956   -1.28879645742838
H           1.43813731653026    0.63642426884864   -1.76026309087474
O          -1.54639227427044   -0.12430749057616   -1.24237959620277
H          -0.59319490502545   -0.24311233806566   -1.45316832933980
O          -1.53805415952544    2.48973341027707   -1.21906817983858
H          -1.70661673188318    0.85453329272256   -1.34161970694034
H          -1.64485195576284    2.71813090426725   -0.28170488226279
H          -0.58794948113611    2.64083127635631   -1.35574011806917
O          -1.34902560252445   -0.45251653886767    1.20979679832167
H          -1.55564183425512   -0.32706468451191    0.15119985992342
H          -1.10087779494443   -1.44530511257714    1.32033870123680
H          -0.48199152194206    0.08917521535750    1.32916091921200
N           1.14746779439473   -3.00837563084095   -0.63181722870963
H           1.23692226557033   -2.05134808368141   -0.96622655511496
H           0.97343971835422   -3.59887551422399   -1.43566439468874
H           2.04135212660210   -3.27533197142712   -0.23874822970063
H           0.00556565927469   -2.98175720016601    0.54986656762636
