    26
        -50.46147053  Gyration_radius:  2.59152557148 Dipole_moment: 4.218
 S           0.39081554826683   -0.27977309348925   -0.57089046968976
O           1.72594226615363    0.26377452265201   -0.87481386586750
O          -0.58962799022350    0.84927144442421   -1.05852091795317
O           0.09009403578457   -1.49814867770735   -1.28314490807294
O           0.21150079672539   -0.37958713540003    0.87084649833568
O          -3.62510551468466   -1.64468740321230   -0.25228646134650
H          -4.22872771378544   -2.37818972325251   -0.37929705905146
O           3.37536710863426    0.27942964055222    1.26301978095161
H           3.54151066755428   -0.61608024970416    1.56105320235480
H           2.87384725916286    0.19593062674196    0.42741795331324
O           1.25087280623024    1.59470496084776    2.25146484862744
H           1.20746141393635    2.38246871977930    0.98506738910367
H           0.70889752813808    0.83781870994887    1.92540345928807
H           2.16161363524822    1.23731485585662    2.20929486618050
O          -2.24076088382529   -0.62448495233595   -2.30016399060428
H          -2.87757504871796   -0.92673733341133   -1.61097957463950
H          -1.32445584723532    0.38173129989444   -1.57558535587106
H          -1.52012942353150   -1.27299194556241   -2.29293815723024
O          -1.32741539584514   -2.58449038733196    0.71675265465421
H          -2.83591057198154   -2.01508017577709    0.21202049113586
H          -0.81894791840415   -2.55468752460944   -0.11062655103630
H          -0.92713347385266   -1.86341901939441    1.22426982847856
N           1.20118784885135    2.64941339050848   -0.08389045355299
H           1.80576535549223    3.43404295482435   -0.30488861699604
H           0.24518110082084    2.80013527354321   -0.40242302966308
H           1.52573244110282    1.73232125160323   -0.54616154084158
