    26
        -50.44137115  Gyration_radius:  2.59651153883 Dipole_moment: 6.881
 S           2.13300156724071    1.27464821357471   -0.97860197158197
O           3.23444366299067    0.62531626463902   -0.32326543764911
O           1.51036889290907    2.36239783788594   -0.27556576771756
O           1.10308281433278    0.27474190128857   -1.38435268777010
O           2.69833348085893    1.84902385131107   -2.34714833134474
H           3.48944873762800    1.33550682379312   -2.47906719597354
H           1.26594370800578   -0.61848788451145    0.02196009341810
O          -2.41269287196212   -1.42749060890963   -1.31339853052194
H          -3.36227490748755   -1.40555958254373   -1.18367637134627
O           1.38286628111906   -0.97393354438398    0.92754080879549
H           2.33694821752396   -0.94125944028423    1.05129843953678
O          -1.79397435688282    0.94277127057732    1.00631745322014
H          -1.85095659176920    0.00070309748491    1.19567326952254
O          -1.28150170307973    0.88223625741616   -1.45027985555607
H          -1.49962362460658    1.06500549680078   -0.43655873141810
H          -0.22944934327565    0.69941201369858   -1.48590130534734
H          -1.71569822510747   -0.01940718617207   -1.60375007478172
O           0.53249617955197    1.42052966070306    1.99885298173506
H           0.93133026870252    1.95981177777004    1.28539728611540
H          -0.95580759015146    1.25568692802230    1.46915088816466
H           0.91035408264253    0.53260128683092    1.87312680094380
N          -1.27548904804029   -2.19953649173566    1.03457457159737
H          -2.00645152930447   -1.74499479551591   -0.46750181782752
H          -1.63979296347833   -2.13594696840762    1.97943190546499
H          -1.17863164105375   -3.18895228976223    0.83287670865051
H          -0.32627351727901   -1.82482386954185    1.05286687171975
