    26
        -50.46827148  Gyration_radius:  2.47356502639 Dipole_moment: 4.496
 S          -1.21336376010829    1.09380127594278   -0.54272402803476
O          -1.84943105252289    2.16481295013822    0.18112473337564
O          -1.56384123740406   -0.22808238163094    0.02270950299635
O           0.24725277821353    1.22233595104404   -0.56129404707671
O          -1.72568118395772    1.12825919398160   -2.00132095478867
H          -1.21136958372161    0.46170570872201   -2.53857714538404
H           0.75981988446888    2.46317071556514    1.08566212264572
O          -0.52419726214799   -0.73899015336749   -3.34988313672891
H          -1.15814889999019   -1.05501609346449   -3.99636721833238
O           2.02160366741871   -1.15967349137014    2.02028682155171
H           2.78942609788935   -0.65188954106618    2.28843943927461
O           0.12804413222655    2.57915743812386    1.80644177795493
H          -0.72339693008596    2.67326372156326    1.31806496662385
O           1.79603103731577   -0.83056784607847   -0.62680051656213
H           1.18916239314784   -0.03666905036919   -0.62108239724321
H           2.01917749525534   -1.16059964791962    1.03945890103987
H           2.38177303427309   -0.70003671189913   -1.37404624354588
O          -0.46307857779860   -2.28881234920555   -1.24555890513462
H           0.44501468074073   -2.09889459676783   -0.96124066337810
H          -1.01192338135814   -1.65892227698530   -0.73416358331331
H          -0.48091412531860   -1.43466859325367   -2.63592613344635
N          -0.37371727141577    0.03785619130534    2.31252292251466
H          -0.93158661370596   -0.19004909520858    3.12871098544669
H          -0.92029849409438   -0.16616955285568    1.41529121412726
H          -0.14983149552593    1.07963916774961    2.27066726280511
H           0.52347467816564   -0.50496092262969    2.29960432263347
