    26
        -50.45490186  Gyration_radius:  2.54784924 Dipole_moment: 5.625
 S           1.14950176144341    1.87420746898705    0.86929124847249
O           0.93955594082772    2.83425186965127   -0.18332226237124
O           2.34732288013500    1.04791502133158    0.66316949159997
O           0.00629024161676    1.04319442737019    1.18185222003469
O           1.44657124574201    2.72954880528591    2.18366366024413
H           1.79875467233878    3.53532986692372    1.81901429383237
H          -0.35805091781043   -0.40951953093077    1.69061371045558
O          -0.43638493952452   -1.36841937930099    1.94686274910983
H          -0.77038959434223   -1.37391864994387    2.84460690262630
O           0.33496131554182   -1.18057329812817   -1.92113830988192
H           0.65651532248684   -1.27470045168042   -2.81843538878806
O          -2.94962959726652    0.59423675998952   -0.79289887825807
H          -3.60136813805707    0.51791999728375   -1.49135004220962
O          -0.49208486020244    1.22737629150938   -1.76910925323562
H           0.01891372444414    1.85912013519075   -1.22875195046022
H           0.02349304984484   -0.21218913629616   -1.84717849677208
H          -1.37465856667379    1.16199313731228   -1.34558569279541
O          -1.92588322635957   -1.87602264209576   -0.36728709805552
H          -1.51291815861364   -1.78556215927016    0.50558739069889
H          -2.68516531663392   -0.32256730868119   -0.56159359339218
H          -1.20596668429206   -1.78358811049658   -1.00735770806534
N           1.73428387644132   -1.40114089512563    0.32967091712336
H           1.25729335372764   -1.40563720857891   -0.60860825865505
H           2.04857894423527   -0.36779229480014    0.49786650159630
H           1.02775247910531   -1.62595337880981    1.05204638409138
H           2.52271119183197   -2.03750934669548    0.35837144306788
