    26
        -50.45059452  Gyration_radius:  2.46317700146 Dipole_moment: 4.138
 S           1.84797400957190    0.50485027901890    0.57760942829386
O           0.61817573197007    1.26978814101386    0.65691637804070
O           2.95678452664345    1.04439702827430    1.27085235019420
O           1.55300702034727   -0.92520371921721    1.10878441315345
O           2.16944692701387    0.26659645360829   -0.90724536928834
O          -1.69305111322856   -0.58268463987248   -1.37220996365407
H          -2.56152823740643   -0.77801823336041   -1.72509942895866
O           0.08181077453474    3.28698270442804   -1.01938030710696
H           0.19864539233591    2.68774993549708   -0.25763098188578
H           0.78704527691387    3.93393018891669   -0.96821461166753
O          -1.86253573384491    0.25134462736089    1.04377360462224
H          -1.04615792671596    0.77949301874468    1.03633444071865
H          -1.83500631126790   -0.23391978585328   -0.43124081204653
H          -1.66466703669224   -0.51167871922196    1.63541654951810
O           0.27359947809745    0.99464007144910   -2.37140759534459
H           0.12209247888838    1.91783091536892   -2.07085164712622
H           1.39087119730252    0.57893469352564   -1.53198031994495
H          -0.51521151508104    0.48882951331273   -2.08903947464116
O           0.47584679778884   -2.07235151089960   -0.91982668742945
H           1.07256413011247   -1.84534146099935   -1.63852285385071
H           1.11468403565928   -1.42707612046697    0.35458286461652
H          -0.37860294308568   -1.62638485007591   -1.11401580543950
N          -0.93657100610843   -1.81999360296809    2.55547679902139
H           0.04591149039832   -1.60598604509417    2.41575420184231
H          -1.09641082564334   -2.75799584201951    2.21011691271790
H          -1.11871664850112   -1.81873302047207    3.55104790564599
