    26
        -50.46826816  Gyration_radius:  2.47191880754 Dipole_moment: 4.426
 S          -1.49056066976704    0.02742297956625   -0.86058038833460
O          -0.63742434880392   -1.18127482406888   -0.82747091667918
O          -1.74049587344083    0.46172357489423   -2.21092724979827
O          -0.85654568527205    1.06944913057193   -0.04531979971798
O          -2.84572623861016   -0.34031643223281   -0.21337655440726
H          -2.69596609452794   -0.53699222268596    0.75438957846587
H           0.04938637059938    2.36645532948410   -1.37113106182258
O           0.24602558922168    2.12905137080888   -2.28747490655623
H          -0.57010909271066    1.64192163704118   -2.54494874317910
O          -2.42478123542781   -1.03887389034364    2.25286386426531
H          -3.07313134492475   -1.71544437418003    2.45690181221712
O           3.01862150150448    0.51199920138100    0.37791650463850
H           3.34699901054852    1.41240821650097    0.40527170603981
O          -0.12011677669327   -2.09502589706241    1.61426249424814
H          -0.28910069738601   -1.94749600921483    0.66066291661476
H           0.44911944816887   -1.35299764248462    1.87268621210804
H          -1.55506620889299   -1.51176855108142    2.12830963068207
O           0.78444660028414    0.50129267692087    1.85371750309779
H           2.28683632057646    0.46502160267371    1.02930088474116
H           0.13105413981343    0.71390522530689    1.12848849029165
H           0.45741304674649    0.95229187488043    2.63363029845040
N           1.53056513466063   -0.11824719606204   -1.77587818454071
H           1.13679448300366    0.82110684529506   -2.09218985814510
H           2.20502186871205    0.04459901618381   -0.98918084889061
H           0.68706675805949   -0.66400570817668   -1.40694230804149
H           1.96967402557326   -0.61620593494025   -2.54298107515564
