    26
        -50.44977155  Gyration_radius:  2.61647542793 Dipole_moment: 5.406
 S           0.02902860901636    2.38468717519284    0.71484396703134
O          -0.62996528041580    1.89623404720237    1.90073672256213
O          -0.82820458743687    2.95964658247893   -0.29185175841705
O           0.89423344958886    1.33479038461209    0.12871642379880
O           1.01859351504184    3.53761470957185    1.16998124484704
H           1.03642277429320    4.11265476886698    0.41089287096467
H           0.53848545851836    0.01766341786206    1.08153705074242
O           0.10995654699741   -0.72230742767129    1.56875152738918
H          -0.28782546923921   -0.28093653487417    2.32621654689875
O           1.41493339528740   -1.89767453752380   -2.23380609546376
H           0.92615957532428   -2.57821959288274   -2.70006736890356
O          -1.75750882790730   -0.87146603352337   -0.36637259231426
H          -1.16389302479895   -1.01372240394089    0.40462981221156
O          -0.05843459734396    0.14514937473644   -1.86295488534776
H           0.39103928410872    0.73092884727864   -1.14587195380792
H           0.59317504189203   -0.62289800423136   -2.07581922559078
H          -0.87008806049847   -0.31609858946182   -1.30876006590613
O          -2.82904282892741    1.36147049044934    0.47075712663200
H          -2.30753414196446    1.48742924534156    1.28085942937374
H          -2.45432821708225    2.03756170058430   -0.11643828619885
H          -2.33530806713515   -0.10361935778302   -0.10163227964928
N           1.72230382775013   -2.78116878942556    0.24322273748429
H           1.41134644448125   -3.72429492434768    0.44039572878116
H           1.57445339772882   -2.24058757250178   -1.30146164977936
H           1.17510614808791   -2.14849778093925    0.82290970603889
H           2.68689561570033   -2.70433920486258    0.54058527693482
