    26
        -50.44704135  Gyration_radius:  2.69252658917 Dipole_moment: 6.634
 S           0.86202915891715    1.87019813267869    2.05012118841491
O           0.09269289157540    2.06681439931142    0.82569613477100
O           1.54973956497061    0.57480566556389    2.02214504807496
O           0.13517283776276    2.09342405595089    3.26707236746644
O           2.01250546521687    2.97127364405871    2.00469803312384
H           2.13063242083311    3.18882539643318    2.92422875575925
H          -1.44026567393010    0.78425583383484    2.88886159121094
O          -1.75473154863919    0.56058693649132    2.00537141120245
H          -1.29619054190048    1.20848221405657    1.44246426848925
O           1.15290320332162   -0.95119996938154    0.12472225272668
H           1.40075143956219   -0.34249850587246    0.95703706910398
O          -1.72240831318330   -0.79288023044507   -1.94496941116089
H          -2.47978714975258   -0.93540194069267   -2.51283932521529
O           0.46501341070183    0.88986721437139   -1.46965158683870
H           0.96664244258085   -0.25298999478131   -0.62065409632091
H          -0.43585441346403    0.62129298885795   -1.70906677011565
H           0.36488938462292    1.51194027835059   -0.70999142819017
O          -1.21253543921746   -1.61316884753226    0.60751039229733
H           0.19121438031072   -1.33207492170860    0.36935756097173
H          -1.49070060994602   -0.91023360343076    1.24372064212840
H          -1.61835679586688   -1.36399423471226   -0.24419491725836
N           0.51758536217828   -2.04795218715664   -2.75385913840463
H          -0.96815380686379   -1.32693285097855   -2.31093224080089
H           1.12252729607059   -1.26205963818692   -2.96347513102957
H           0.91047252727386   -2.52706074959532   -1.95202671901708
H           0.54421250686848   -2.68331907547083   -3.54134595138015
