    26
        -50.46827147  Gyration_radius:  2.4735277977 Dipole_moment: 4.494
 S           0.35813250538678    1.41416468413823    0.91335562549948
O          -0.45616408108768    2.08121151489846    1.89702064197573
O          -0.24080094233076    1.49951285022577   -0.43714460960217
O           0.58087249875395    0.00156247231597    1.23788317181550
O           1.72979516369227    2.12617112310104    0.86139931751359
H           2.33910893926662    1.60700024419261    0.26406151268876
H          -0.98701632152565   -0.56453034551741    2.55579339453264
O           3.24823378165310    0.88466806631481   -0.84179291817101
H           3.80169246268173    1.55449052078748   -1.24765514242154
O          -1.79029697570244   -0.03032549166122    2.59366121774505
H          -1.42720492315853    0.88603775490763    2.56615653492574
O          -1.70656350335649   -2.42358687950114   -0.85186222258419
H          -1.86755346431171   -3.14509797104988   -0.24131012015400
O           0.87980014499943   -1.78558613875077   -0.58796534279442
H           0.78261032071216   -1.08384293797383    0.11684324674494
H          -0.73588139960311   -2.28334626152013   -0.86485856800823
H           1.70062344214443   -2.23799616600251   -0.38779955829293
O           1.18561264820761    0.31966889901761   -2.34500333492573
H           0.59724362931289    0.87124428948390   -1.78899617777639
H           2.55292359848138    0.64788892234880   -1.51714622690332
H           1.03054585193293   -0.58524115235700   -2.03093173726602
N          -2.34242290739203    0.04683790093099    0.01384640541725
H          -2.27745396570208   -0.02581664591833    1.07576529504398
H          -2.19913782947109   -0.90483686768375   -0.40278302824099
H          -3.22720428845708    0.44846124815197   -0.27799781120717
H          -1.52949436512469    0.68128636707408   -0.27253957559556
