    26
        -50.45568700  Gyration_radius:  2.56630485866 Dipole_moment: 1.986
 S           0.49352217305893    0.42205401329373    0.77703545489677
O           0.43939304634085   -0.98668934063517    1.12135420773231
O           1.69247323180475    0.76760693351084    0.03616533028437
O          -0.71954866154243    0.80481664762538    0.01101541105493
O           0.48437925641982    1.26914341906514    2.06484810958543
O           0.16376408518409   -1.24310084659004   -3.00516515420669
H          -0.55702603586017   -1.87262887790641   -2.94717180836847
O           1.78971470607067    2.29415581003575   -2.04820300834515
H           1.89788487179138    1.73760642591706   -1.23346266716244
H           1.79744314846263    3.20703804625727   -1.75454416279210
O          -2.02301117036724    0.97516559308987    2.40874768555374
H          -2.06258244677912    0.02555259506231    2.69500227252700
H          -0.47835081656623    1.23673323708822    2.36232194524516
H          -2.06579679145963    0.96042449688943    1.44342867569505
O           1.75194547603082   -1.80134886932615   -1.01319264776297
H           0.81939932430987   -1.50192082677480   -2.29628058582260
H           2.44022095629248   -1.12980448993374   -0.98157147228228
H           1.24622290404183   -1.65649227919148   -0.18499417844282
O          -0.44248532871575    1.14201810653492   -2.41022056912855
H           0.43669029918062    1.66981530703690   -2.43004545164469
H          -0.21934662354204    0.18825703226547   -2.74367299324291
H          -0.62550346580042    1.01739706832115   -1.35864800021465
N          -1.69965421679431   -1.64097893869361    2.88273969283039
H          -2.30196889812642   -2.37636406620197    2.53495364053387
H          -1.37377287038011   -1.91908284478191    3.79978808769198
H          -0.88400613309176   -1.58937336193978    2.26977218579996
