    26
        -50.44704223  Gyration_radius:  2.69301915002 Dipole_moment: 6.629
 S           1.70193319961006   -0.07443491591245    2.35582480540225
O           2.30111884901672    0.47594879172041    1.13541096854541
O           0.45311917086289   -0.76329227314544    2.04535535142251
O           1.61876859436330    0.88209364726996    3.42221417405921
O           2.69901089265441   -1.21406581855219    2.85148346441199
H           3.21261660474279   -0.76816020591017    3.51801239832674
H           0.05760227968030    2.02357714003558    2.63405164698376
O          -0.62528763632927    1.66788381449959    2.05408190273579
H          -0.48173451282057    0.70731436762586    2.11442983390219
O          -2.42228275414279   -0.21395131481488   -1.20968238145962
H          -3.35600004258385   -0.24099958576212   -1.41918426512041
O           1.08672186762759    0.26529586676358   -1.00190830666858
H           1.68562448203402    0.36837714341134   -0.13287661941229
O          -0.78343284804330    1.87351467691905   -0.57445841413464
H           0.34937153712468    1.02253503248466   -0.88918500721460
H          -1.53875513500333    1.27779769074791   -0.73841188551297
H          -0.73834656292811    1.97194364099804    0.40747392221211
O          -0.27197681599367   -1.73689169269296   -0.26046788495805
H          -0.01237098492713   -1.56839919948098    0.67678813080529
H          -1.17972994836510   -1.40543159013494   -0.34479222096951
H           0.57251402399381   -0.61811403326042   -0.82043253738273
N          -0.80660876778551   -0.80535094811285   -3.28002414407623
H          -0.36806401230541   -1.65830915847041   -2.95188362927535
H          -1.14519987082441   -0.96819215199321   -4.21993945399101
H          -1.92127616477935   -0.40764393272892   -2.04605937141727
H          -0.08733543488406   -0.09304497145842   -3.32582048719402
