    26
        -50.46827151  Gyration_radius:  2.47343874246 Dipole_moment: 4.495
 S          -0.00423211069236    1.25369640034281    1.18009120053043
O           0.25006684810631   -0.15575157820469    1.55241445763014
O          -1.12027308813126    1.80069565774918    1.90868946706208
O          -0.19525695829090    1.32686264707595   -0.27195931395237
O           1.25707477108129    2.06870176458466    1.54886373709439
H           2.01319322114685    1.76976444073017    0.96893111461299
H          -2.28793221329605    1.49348960751111   -0.59243099543989
O          -1.28426929963821   -2.11497769398897   -1.84137131487276
H          -1.85179504047165   -1.85044257910585   -2.56742784964743
O          -2.89805719603347    1.23192835986315    0.10863354652720
H          -2.45530180157678    1.59659478416232    0.91070974417254
O           3.26597506256556    1.15666171834104    0.17710841455530
H           4.03915698804760    1.24997064474147    0.73673148464016
O           0.79667971362816   -0.43045776661494   -1.86748112711939
H           1.30450260704478    0.05617958263989   -2.51849342542631
H          -0.45612013751199   -1.59800341299796   -1.93480873638471
H           0.43017259694021    0.25965771765322   -1.24458806874342
O           2.30325766215377   -1.27130995157783    0.28542262916714
H           1.59136666577681   -0.98864691885959    0.89611369740291
H           1.87645682458647   -1.28853872542636   -0.58586872061385
H           3.02694523266588    0.18797845523364    0.18757748459138
N          -1.93587821428892   -1.17643209135591    0.59827664127393
H          -1.72359594859987   -1.65900709195033   -0.30824254301400
H          -2.47192571804662   -0.27711313964115    0.39559504408501
H          -2.45115689932622   -1.78273496162499    1.22772395486682
H          -1.01905354793733   -0.85876588938317    1.04978947702582
