    26
        -50.45316397  Gyration_radius:  2.76358590278 Dipole_moment: 6.502
 S           2.77000103603815    0.31201922502709    1.19360639812553
O           2.44592745170921   -1.10932056086029    1.05867006569048
O           4.15783834903305    0.62742626040197    1.11503195302305
O           2.32196868969319    0.68843190223216    2.70933977806677
O           1.87413861382904    1.11913163842138    0.36719892932144
H           0.52594376708578    1.27709032584630    1.27522705555925
H           3.16265929295137    0.65074964414286    3.15296515269495
O          -0.30480770752283    1.13901100807801    1.79589311437640
H          -0.02981963147973    1.22056680597240    2.71098205641566
O           0.24307822030973    0.62181756684513   -1.70731926046815
H           0.99842106664071    0.95136744318003   -1.18712320971702
O          -2.65725976086460   -1.22106993477619   -0.63184276255678
H          -3.57863541761420   -1.43935126444638   -0.77476505932074
O          -1.94978340569615    1.47884169702563   -0.45180643601538
H          -0.53379076578629    1.14469117024364   -1.39652572054015
H          -2.34850919560624    0.59254147109099   -0.41550997038790
H          -1.56190026174341    1.63018751038684    0.42027378510941
O          -1.25360234416710   -1.28378750280305   -2.94694416082737
H          -2.21008632603075   -1.32298607148223   -1.49898086205170
H          -1.60705800326171   -0.99254479732536   -3.78872029067384
H          -0.57074097670420   -0.63482740112950   -2.70090196648753
N           0.00054370554756   -1.12480100550360    0.34159988340905
H          -0.54875359341194   -1.97550086273103    0.27026649349763
H           1.02976738264971   -1.26710973824661    0.64556944893040
H           0.03688762121657   -0.62148358799809   -0.57905911177312
H          -0.41242780683765   -0.46109094157770    1.02287470665314
