    26
        -50.46907351  Gyration_radius:  2.47630740205 Dipole_moment: 2.906
 S          -0.91605881858970   -1.97792583032839    0.48127953715809
O          -0.32382565746839   -1.70394521942849    1.78575843222439
O          -0.03274434361822   -2.71387012763269   -0.39142621419338
O          -1.46146680432458   -0.77054318575070   -0.12205178172167
O          -2.16635531136953   -2.91854178234952    0.74743416620411
H          -1.73368001301620   -3.74193818327275    0.94559103400485
H          -0.92942699424643   -0.29789173525092   -1.60277111544330
O          -0.55349666117803    0.05204834023871   -2.44577808555964
H          -1.16428490381721   -0.20010515560757   -3.13899148178373
O           2.23107759846982    1.07175423537104    0.21918933429932
H           3.18311169308485    1.16992963253985    0.25447183125857
O          -1.66201101153526    1.79541999009045    0.72324534121980
H          -1.88377209022586    0.90770931783245    0.38988892086940
O           0.12765412022789    2.40844325043149   -1.15890817776741
H          -1.13019863128781    2.20776532771590    0.00145559122923
H           0.95039001978273    2.12485423341726   -0.73581976920659
H          -0.09937745568922    1.69991248321007   -1.78327293851476
O           1.73392255686566   -0.96623564694114   -1.29767059612158
H           2.06065497319853    0.25553540134469   -0.34085807526130
H           1.14541453509230   -0.59343032771593   -1.97255690693336
H           1.21252016243468   -1.70335913332755   -0.91577139115056
N           0.29778318645413    0.79258917245386    2.09948104710848
H           0.05572526607817   -0.24486014119022    2.04214671117214
H           1.13582258448161    0.95509940190617    1.50576534383807
H          -0.53515658726884    1.31448049996233    1.65134458517406
H           0.45777857749201    1.07710517226096    3.05882466789388
