    26
        -50.46147055  Gyration_radius:  2.59196980684 Dipole_moment: 4.222
 S          -0.67727214555210   -0.29218329890615    0.11320677908970
O           0.20679766609634    0.21473467640383   -0.92699511854132
O          -1.90548316172026    0.45278987840895    0.25054209671049
O          -0.88527539527167   -1.73968673520575   -0.06514135624282
O           0.12835566031277   -0.19635416742054    1.46065188783456
O          -0.23188515862174    3.79348926014246    1.21697114834624
H          -0.65517441107555    4.65100286405265    1.27961976990260
O          -0.04006744076444   -2.64562701126098   -2.46465613163986
H          -0.54709419954297   -2.24129383105772   -3.17020892262170
H          -0.46978026082927   -2.36733334766325   -1.63122683568216
O          -1.19907523659786    1.67927498116954    2.53771615661268
H          -0.30469780738361    0.54562247146639    1.99711686888810
H          -0.79132170317570    2.50856696874400    2.19423028756134
H          -1.88187180347042    1.43711936374907    1.89356503248692
O           2.17055921012622   -1.39571577662375   -1.58576058540214
H           1.61037184529473   -1.96012819439049   -2.15710911817889
H           1.58805436640309   -0.61804546965833   -1.41581511747470
H           1.95740186408793   -2.05048978935049   -0.26159852565590
O          -1.00462626923776    2.61865685886486   -1.04665545402157
H          -1.65143368652416    2.00646491169955   -0.65782533022145
H          -0.44990259566231    3.44349561911283    0.31948710323990
H          -0.28991043285860    2.01852051814601   -1.30455764214238
N           1.48225854644956   -2.41539692603211    0.66286074327458
H           1.72246858910126   -3.37617466742184    0.88478933906557
H           0.43557103540447   -2.28972962804830    0.44191651073559
H           1.68303290503384   -1.78157952890546    1.43487641408102
