    26
        -50.45316377  Gyration_radius:  2.76366838052 Dipole_moment: 6.502
 S           1.14686012985778    1.28653807399040    2.49479523450185
O           2.04056328551652    1.52278967976610    1.35932450726567
O           1.17394894388025    2.29055024558000    3.50621169634618
O           1.73010725038633   -0.05740388980049    3.19739994825032
O          -0.17482439849069    0.87480474037258    2.02549950191732
H          -0.01493275813326   -0.72440748239258    1.73460239602463
H           2.23213813723168    0.32316987525397    3.91028526155935
O           0.23191161040129   -1.62002495511607    1.39244873383011
H           0.81340698434716   -1.98078587143725    2.06423645486925
O          -0.09540666724506   -1.27939130565003   -2.70349834543561
H          -0.23282073330629   -1.82604267929009   -3.47767959217494
O          -1.49010017495313    1.02133478174175   -0.31117320023029
H          -1.23468130238238    1.18744279523045    0.61442705328879
O          -1.20202928318236    1.17306578862097   -3.01343289071313
H          -0.46985120204405   -0.39800846823908   -2.91612791270776
H          -2.02990245279937    1.32836434963405   -3.47051279716138
H          -1.37357711115496    1.35615748302812   -2.07268834451118
O          -1.81622631658380   -1.61784445577479   -0.52547352831737
H          -1.28657192362830   -1.88666290070646    0.23692856362305
H          -1.85270444936515    0.10363304098834   -0.31953249543757
H          -1.22788369891454   -1.68873827285706   -1.29670593083270
N           1.04840432692718    0.11578875549832   -0.51933635634924
H           1.50890734344866   -0.01247705252927   -1.41486659780240
H           0.09932857944693    0.54772368098753   -0.64204608142666
H           0.89903230447071   -0.78872734965280   -0.03507385967386
H           1.57690358624169    0.74915136275018    0.18198857129462
