    26
        -50.44966171  Gyration_radius:  2.48423932087 Dipole_moment: 4.136
 S          -1.14054613359683    1.08137163753024    0.23768883016006
O           0.02048587811814    1.11930525194831    1.23044951453564
O          -2.36919079076487    0.96641317454707    0.95953120707713
O          -0.90317217332060   -0.22634215290326   -0.58804225552079
O          -1.03770539538274    2.15945682721356   -0.69588477609517
H           0.35529840078088    2.18441447364954   -1.60802140442852
H          -0.85485577514947   -1.02483754929165    0.02456804244235
O          -0.68019084738282   -2.19576552120227    1.03453562340317
H          -1.30889001692182   -2.89951236399432    0.86454513520384
O           2.45019692189523   -0.22318318810717   -1.55511170317612
H           2.32717224884912    0.73342789972362   -1.65750216909363
O           1.18096499442602    2.16757388792226   -2.13797960562932
H           1.41045346886243    3.08437654594851   -2.29545435346472
O           0.27154710736285   -0.38018234218685   -3.16060893920839
H           1.80434882770280   -0.59837315164690   -2.18510700947385
H          -0.35102326139458   -0.41196363176410   -2.42432305639654
H           0.46275579322506    0.55706673780327   -3.29038477694733
O           1.69179413622097   -0.67810431675033    0.87892478773378
H           1.17147186352508   -1.49150249079180    0.87200381243669
H           2.06145743788902   -0.55090287872015   -0.04731454410611
H           0.77000761743946    0.38508368003434    1.08255162693828
N          -1.50131103216652   -0.72670436269160    2.99926521772180
H          -0.98555143726436   -1.71783374182653    1.88631466404296
H          -0.72691369280739   -0.25361240504155    3.44855410802790
H          -1.97005655349052   -0.03544770802715    2.40831392372449
H          -2.14854757667142   -1.02422233135496    3.71848809010594
