    26
        -50.45150344  Gyration_radius:  2.64282821857 Dipole_moment: 6.597
 S           1.27151318920644    1.83864659228378    1.24098019646110
O           0.80864072842217    2.34072149862587   -0.02177076457301
O           2.43250601400385    0.95053011903248    1.09575491523441
O           0.23297785877775    1.20490253319122    2.05157257158080
O           1.76094535537134    3.06369669307013    2.12673393226840
H           1.21745205984900    2.94787280048905    2.89894667898565
H          -0.25631608217920   -0.27522899622776    1.90100950559804
O          -0.44522883062204   -1.25736661299406    1.83968548591168
H          -0.78110037141542   -1.51054150091444    2.70052786951756
O           0.35141850933564   -1.28969471817801   -2.01027765798787
H           0.33904935673502   -1.85250598796504   -2.78486320107716
O          -2.95567414489046    0.59819954166929   -1.10590435415776
H          -3.60590284220869    0.74597085028617   -1.79329474720044
O          -0.62660691204780    1.40277306865199   -2.07484523103286
H          -0.14118955671789    1.87243178567728   -1.37060294061689
H          -0.14851834678638    0.57156843558198   -2.19795167816381
H          -2.11601799107975    1.01152650411004   -1.43192161402921
O          -1.75052379971449   -1.71362157920064   -0.57970070473160
H          -1.42937417909445   -1.59126992917151    0.32796030120070
H          -2.31390830304806   -0.92441243327579   -0.75385320401927
H          -0.50685185220030   -1.47454286200130   -1.50807840019251
N           1.74678945668060   -1.35935789035378    0.28048886484084
H           1.35866340184587   -1.32118667411750   -0.69024226569086
H           2.09682598283812   -0.36477649458338    0.57608829220589
H           0.96454459635953   -1.57550773482124    0.93000578820270
H           2.49588671256473   -2.03882701886501    0.35355234145776
