    26
        -50.45316417  Gyration_radius:  2.76350240127 Dipole_moment: 6.496
 S           2.67841793153978   -0.88745130310310   -1.10996823658438
O           1.72498084440238   -0.70049258351428   -2.20520014869306
O           4.04488864688884   -0.66915575820061   -1.45197147887269
O           2.56783022071805   -2.46567694454747   -0.74025229897664
O           2.19932238461889   -0.22309006801055    0.10083873641035
H           1.14450188743903   -1.28811916033359    0.74892296633170
H           3.32774125308456   -2.80506894174187   -1.20110071544957
O           0.37988129148806    1.68005715642767    0.62936088854383
H           1.23696515452730    1.22909485534135    0.52102757868107
O           0.38337981854921   -1.89029831903563    0.94477124934945
H           0.72918525452541   -2.77121471661700    0.78981621321249
O          -2.95890330906451    0.40143493618018    0.19665104633365
H          -3.88392517316553    0.45245666758698    0.43904473783782
O          -1.07192219425746    0.12777391367867    2.24219509002489
H          -1.83166424853923    0.10433176463294    1.63542717231955
H          -0.59691106003691   -0.70226094190050    2.10313635719594
H          -0.04328202021264    1.24849661656282    1.40932359339591
O          -1.91161790646889    2.86003660883434   -0.24494734316754
H          -2.14918740913987    3.63981267950866    0.25893521802417
H          -2.67287105521941    1.31839648977039   -0.00185591808983
H          -0.99114072804068    2.65240777851485   -0.00485815819641
N          -0.49540575534453   -0.26358057325729   -1.03343467311556
H          -1.37822808509826   -0.19870828621657   -1.53030226589296
H           0.37105058702330   -0.43944526776002   -1.65830367907738
H          -0.29588841484621    0.61990488058314   -0.50254095662775
H          -0.50719791538525   -1.02964149341062   -0.33471496491857
