    26
        -50.45316414  Gyration_radius:  2.76340314288 Dipole_moment: 6.493
 S           2.70653059817606    0.56009871147280   -1.24636281153992
O           3.94965920421077    0.15577960401687   -1.81467444372633
O           1.64591140459687    0.85269904722914   -2.21217100591937
O           3.00067642626829    1.98477874258831   -0.52248090085798
O           2.19054556161458   -0.27014732188890   -0.15951351822542
H           1.47464847072875    0.79511045013651    0.85054018853763
H           3.77921748855179    2.26104156235452   -0.99430116183498
O           0.89583179613608    1.47405931462277    1.27977396303722
H           1.42418688335513    2.27435281386680    1.27785317478251
O           0.02685812321524   -1.82432944535581    0.17922139140241
H           0.95345993072735   -1.54881100587575    0.05586971076161
O          -2.94241105217893    0.18413430897675    0.51372538973252
H          -3.82844934410262    0.26535870831848    0.86797775582230
O          -0.87591942494477   -0.45637432837957    2.28438483253488
H          -0.21470358584028   -1.52259356710526    1.08709077417670
H          -0.23320534984330    0.26509470069951    2.26954376349493
H          -1.65789594399362   -0.12587443410317    1.80979528887591
O          -2.54324560586938   -2.24762868362397   -0.61016168218923
H          -2.91365963284300   -3.06115862685973   -0.26481819560632
H          -1.58274178316579   -2.30211332916329   -0.45993827538265
H          -2.89759428318989   -0.69258862084156    0.07617045226178
N          -0.50621707034202    0.60949126389660   -0.86924962097040
H          -1.41882654099403    0.85491559877874   -1.23981223022015
H          -0.47532443683456   -0.39981398892112   -0.58172952023920
H           0.32023777003785    0.75138891939429   -1.55392848714366
H          -0.27756962345853    1.16312962578422   -0.02280483157060
