    26
        -50.45316372  Gyration_radius:  2.76273524114 Dipole_moment: 6.494
 S           2.15744994752868    1.96434339050571    0.81958279714571
O           2.46338461772194    1.41297056350916   -0.50181852418072
O           2.65139364042926    3.28024861942849    1.05649487862585
O           2.95957090455664    1.00377195475917    1.85578901758110
O           0.75506622580519    1.72804415443242    1.15745808278530
H           0.73270080331912    0.19494271804502    1.72051989903142
H           3.72962880396670    1.53608254079295    2.02498831158934
O          -1.31065168648897   -2.32242860569880   -1.36077658863124
H          -1.79147828782108   -3.11028225795035   -1.61585356014209
O          -1.45252235814497    1.09582795713119   -0.23520636712092
H          -0.81074418439412    1.60273481208818    0.29472215351427
O           0.78252355382402   -0.78647748605099    1.84108816155337
H           1.59262180851725   -0.92603557361684    2.33492371471673
O          -1.90167488468385   -1.16170729295781    1.11376616780873
H          -1.80363002820944    0.40413752930717    0.37465713792563
H          -1.71646812969442   -1.72880462727838    0.34564027235930
H          -1.09622324007592   -1.16858501284932    1.64775894533153
O          -2.36211328279535   -0.10232454685248   -2.50340337860188
H          -2.10603882879775    0.53168470563432   -1.81015049684810
H          -3.29785443938864    0.03455805588343   -2.65810205349292
H          -1.71374238138412   -1.57856950738699   -1.85678620485940
N           0.71255522970360   -0.40743280210461   -0.83916923869631
H           1.51064754260389    0.32415866535546   -0.82760699885247
H           0.72784286070053   -1.04819697942890   -1.62638693798763
H           0.77074247172354   -0.91261243765311    0.06443474234667
H          -0.18298667851713    0.13995147296235   -0.81656394288758
