    26
        -50.45490141  Gyration_radius:  2.54671142629 Dipole_moment: 5.600
 S           1.48974118612040    1.06969642857498    1.48702219324140
O           1.80578240924631    1.91644937669741    0.32845172431986
O           2.45810821401036    0.02640279849470    1.70500560518661
O           0.11201639553706    0.62830222977989    1.43281421343488
O           1.59713796880496    2.03134648573092    2.75655872717796
H           2.48460165775495    1.86177514173324    3.05670147806692
H          -1.26614049456591    0.99380583132044    0.75067341777667
O           0.35498960508371   -0.88161419268303   -2.07175880613786
H           0.91016527068728   -1.26076941577444   -2.75401032388892
O          -2.03955971139797    1.29121595453201    0.19826863895749
H          -2.66368963016583    1.68346625423117    0.80989088449508
O          -1.07888115716180   -2.72272253101002    1.05070894721298
H          -1.20736406058315   -3.64716069715676    0.83325805131168
O           1.29770680814533   -1.78663563577024    0.11872142209072
H           0.74122200882313   -1.22146870380516   -1.19107770179170
H           1.76068789646260   -1.16750309660994    0.71403982120083
H           0.51252454464074   -2.10197214501660    0.61542967470435
O          -2.20728700714089   -1.26488514261826   -0.93261261799612
H          -2.30109165312234   -0.38844987476214   -0.52835964518092
H          -1.40516914220478   -1.21908498316002   -1.47212065828927
H          -1.60311026601096   -2.21054791638165    0.39739126399458
N           0.03666797412802    1.69391911331203   -1.49007309793734
H           0.17427228160801    0.71200467484916   -1.84326301062547
H          -0.87973766849615    1.73926276902777   -1.01053249691682
H           0.80515581697090    1.84589555531903   -0.72800239313855
H           0.11125074273432    2.37927172120201   -2.23312531135515
