    26
        -50.44574811  Gyration_radius:  2.41263824995 Dipole_moment: 4.178
 S           0.76550006726289    0.61106680576721    1.48456944085825
O           1.93349568946898    1.01634156296397    0.73008033328751
O           0.98654434829078   -0.15645015242702    2.67210540568318
O           0.02983989227659   -0.40586480887985    0.44563906468999
O          -0.20682268477111    1.69698485935721    1.64730279034136
H          -0.17303502886865    2.29667883838144    0.05829571394457
H          -0.59492987545154   -0.91358276524690    0.96693768947327
O           0.20890110622436    2.21653598078151   -0.84561436166979
H           1.09033553525391    1.86053198340211   -0.61823768343548
O           0.56277278605339   -1.43954511497278   -2.32427856581127
H           1.01945190739795   -1.24411306155677   -3.14494903351245
O          -2.91604260536255   -0.15998283630676   -0.06785620107883
H          -3.61910108669697    0.49261584543528   -0.07937895873025
O          -1.13386021429574    0.37945294060187   -1.89710988425932
H          -0.56492156815578    1.17840979153627   -1.48611783408269
H          -0.46269223274009   -0.41110577683572   -2.03081922384146
H          -1.79256993394287    0.10259103402493   -1.18453291573343
O          -1.89001953629624   -0.11219428853156    2.45260928822451
H          -2.61364929150475   -0.21671892003173    0.85894108340941
H          -1.35696125808214    0.69681131997264    2.27957629129693
H          -1.41155872120819   -0.56523963982038    3.15172927992472
N           2.53827020547684   -1.40419899225620   -0.58153167869430
H           3.49708051623954   -1.43045996876851   -0.90796618097498
H           2.43420751121333   -2.12842762340301    0.11835146014041
H           2.39947771118470   -0.51402303572837   -0.09758319551848
H           1.27028677099525   -1.44611398745296   -1.60016212393141
