    26
        -50.46146997  Gyration_radius:  2.58998047386 Dipole_moment: 4.228
 S          -0.04923543585751   -0.75001784607009   -0.01252971146320
O          -0.59837412332150    0.46509867905935   -0.59829459482694
O           1.01758490097967   -0.28506368240578    1.04569513674018
O          -1.07574780513764   -1.42288407500806    0.80205199555257
O           0.59077333964807   -1.62189720878632   -0.96754009626083
O           3.29375710467146    0.91488911417849   -2.04113008195110
H           3.89831960398758    0.83649484643026   -2.78061475917950
O          -3.56007558027710   -0.44572490724168    0.39197170211937
H          -3.83218164756718   -0.59906932634261   -0.51404962484137
H          -2.71250865083641   -0.92129290579492    0.50198688775522
O          -2.21691364393752    1.80864526499499    0.97074110088421
H          -1.56961592450709    1.52511772481821    0.28258522291406
H          -2.98406796497603    1.22661918838245    0.79314414104996
H          -1.57864441846505    1.07976438661788    2.10599077368822
O           3.09869037639500   -1.02050159986128   -0.20654211093817
H           3.31040596464678   -0.27246735609570   -0.81277131613077
H           1.92248643852138   -0.51568430906577    0.65354134740995
H           2.48435478212814   -1.58836399716757   -0.69649671477548
O           0.84331765360250    0.26259690700060   -2.86068095688994
H           2.38777076984668    0.77896416970270   -2.41037382836279
H           0.81807975602637   -0.63528656853355   -2.49121264170427
H           0.23270106310609    0.73667965918451   -2.27698748135951
N          -1.05804523029079    0.30951754512980    2.69697805676853
H          -1.49636351235870    0.12829063107028    3.59419701102172
H          -0.07197973934593    0.54730738785972    2.79237179638269
H          -1.09448807665574   -0.54173171205486    2.03796873638910
