    26
        -50.44574842  Gyration_radius:  2.41329449744 Dipole_moment: 4.204
 S          -1.40045294757436   -1.09843571473700   -0.05247619534843
O          -1.07443457132133   -1.59549223504057    1.26822196153750
O          -1.65036995241778   -2.06850332983373   -1.07463506777813
O          -0.01286396194953   -0.36313829981687   -0.48707915367202
O          -2.37376879390120   -0.00180796224594   -0.01920326141990
H          -1.70603100805875    0.87860540055118    1.26810004207139
H          -0.05620053710753   -0.25107340955761   -1.43850935780534
O          -0.99303824803518    0.94208554710429    1.94437476092114
H          -0.81898646976541   -0.00903451361319    2.08621119492233
O           2.68775809481609    0.10277404207052    0.75001942528791
H           3.15702337142708    0.16397417006372    1.58443349032701
O          -0.08890097437866    2.39171275059355   -1.67485241771547
H          -0.61379826181116    3.19449636088254   -1.65719351626132
O          -1.77080651118168    0.42343031560468   -2.51152867543075
H          -0.65894866997086    1.70395912847834   -2.06964544112591
H          -2.18868948750074    0.33191852410757   -1.62537521524173
H          -1.88309070482180   -0.44129292681055   -2.91503050089772
O           0.93686524910206    1.91907129089876    0.67770270688655
H           1.65626966162009    1.16129082904371    0.64282500213997
H           0.58800691051573    2.05152563106050   -0.26008015274692
H           0.12834402966532    1.52720709097219    1.24655493589672
N           1.62788416008550   -2.30441711508229    0.89541377382235
H           2.25315910075491   -0.81148474840611    0.73486559074956
H           0.63976019879833   -2.11060113282680    1.07443678490362
H           1.66742447043802   -2.78587711275084    0.00564606767068
H           1.94788583259982   -2.95089259071866    1.60680321832842
