    26
        -50.45568734  Gyration_radius:  2.56693297556 Dipole_moment: 1.980
 S          -0.03488646471925   -0.96110829056804   -0.30618646216752
O           0.83973583824133   -1.00319688848492    0.85097584374855
O           0.12088260648466    0.33466741886385   -1.01434758263560
O           0.37821952656055   -2.05955251701275   -1.30599857610822
O          -1.42593836039300   -1.18744479417678    0.03967783577890
O          -1.40311548881402    2.38142265348222    1.73161408334375
H          -0.62147994128973    2.88163836857008    1.97243970660963
O          -3.44226096282125    0.13529245103744   -0.89175485333246
H          -2.76743336178071   -0.47889112501575   -0.50089947195929
H          -3.66742997462925   -0.22342085124810   -1.75213777146080
O          -0.95738183734397   -0.06071560948239    2.53225434350338
H          -1.27524438723251    1.46398977134964    2.10740049134749
H          -1.68745453676829   -0.60984189302473    2.23036249776619
H          -0.18573220447841   -0.40300007866805    2.03224379369585
O          -1.69656129608084    1.97174542588575   -0.74953888641723
H          -1.62617341898694    2.22084086454292    0.25223953292582
H          -0.87611800799674    1.29716197722761   -0.91079957026869
H          -2.51687306863846    1.36264581741660   -0.84093460012633
O           2.36274434069698   -0.71768928314802   -2.17382319594173
H           2.98705653943039   -0.78715021224380   -1.40531038125309
H           1.20538021986309   -1.68309091535933   -1.74228687622107
H           1.80844621098059    0.05300334881626   -1.99296565261085
N           3.60818130915087   -0.93781590019254    0.18739180596556
H           4.07603938582011   -1.81091722066464    0.39549530578862
H           2.67702178744210   -0.98139985171964    0.60531476971074
H           4.12037552732697   -0.19717264621145    0.64957389035296
