    26
        -50.44574820  Gyration_radius:  2.41267774269 Dipole_moment: 4.179
 S           1.49614152603223    0.56985870966712   -0.77494414402324
O           0.72265079935022    1.29597434953696   -1.76097475993750
O           2.54709361722975   -0.27310607559282   -1.25770341899673
O           0.38236212681265   -0.44376607395673   -0.15314216507740
O           1.87738926968393    1.40377208450040    0.36983097504018
H           0.38916935267103    2.18596044864244    0.60999515682493
H           0.87225347407625   -1.12906706483013    0.30543671251832
O          -0.54251404476071    2.29682544046253    0.31133201754408
H          -0.43124493904682    2.10542165664248   -0.64073112399158
O          -2.53606308072113   -1.00286226053047   -0.59624210850521
H          -3.35496168429503   -0.62241259429677   -0.92011041259639
O           0.12581106501187   -0.74472247677420    2.82210982744125
H           0.25881931886130   -0.24915975415722    3.63267454863321
O          -1.73758557377582    0.36411717991950    1.36935774047169
H          -1.02372395272667   -0.12594081602314    1.88767063236534
H          -1.26267687887127    1.20723279696494    0.92798226104671
H          -2.02838196092847   -0.24984263892472    0.57457547969898
O           2.54549843257622   -0.79914508974883    1.57652308349388
H           1.01017729786647   -0.85355531143382    2.42267005764671
H           2.44810660108180    0.11768958973096    1.23226498839561
H           3.13749613577486   -1.22437438719234    0.95061087924558
N          -0.95833522573329   -0.76536930301312   -2.69257594920246
H          -1.87522963755494   -0.94795243967660   -1.36122448169709
H          -0.36181883506597   -1.57561426466202   -2.80597002973083
H          -1.35579777287260   -0.54949017775977   -3.59918014318032
H          -0.34463544046712    0.00952846249865   -2.43023561337712
