    26
        -50.46146955  Gyration_radius:  2.59316705367 Dipole_moment: 4.203
 S           0.45460162424943    0.01989386907379    0.58539711745711
O          -0.05224716263352    0.84405802457347   -0.50274347241867
O          -0.25144226625476   -1.37844327055985    0.44289051646770
O           1.88416366593528   -0.17487662505717    0.55511571625661
O          -0.04058681904081    0.53041860691227    1.87559860348829
O           1.95888302525977   -2.03890966271176   -2.82211105956729
H           2.73421708646074   -2.25602197637527   -3.34193428635435
O          -1.13614223972575    2.99190149710022    1.69914452369471
H          -0.47490689359956    3.63328503467460    1.43494527597414
H          -0.65288517227305    2.15577786721544    1.85435137183982
O          -2.51902208310269    1.68482274515608   -0.19893094147911
H          -2.27305275306268    2.40940362408036    0.41199501478528
H          -1.64427395748106    1.39512379551884   -0.55099685783102
H          -2.68416119385004    0.55786709262405    0.76604269009728
O           2.14544267299726    0.49761936773515   -2.02556941617794
H           2.41437910794874    0.32128001984561   -1.10845216597677
H           2.00859325231430   -1.06850193016611   -2.64574447598292
H           1.24253952896137    0.82741472547096   -1.91040647606709
O           1.77610233627665   -2.73903338130396   -0.24765981951342
H           0.46757120443803   -2.03174251133904    0.15545589562161
H           1.82073438027794   -2.63699353473356   -1.22718434634822
H           2.28097795021940   -1.99574141089776    0.11635829049592
N          -2.46820287765785   -0.22251053984857    1.51284043997684
H          -1.48064272021803    0.05103585615288    1.84466133272555
H          -2.36834088263333   -1.12772468608342    1.05588043541250
H          -3.14229881375105   -0.24940258704823    2.27105609342868
