    26
        -50.45160700  Gyration_radius:  2.55921741107 Dipole_moment: 9.061
 S           2.53957341786682    0.03541538746560    0.68972300783660
O           3.81322263946989   -0.59637229001533    0.65321008694928
O           1.42547796283273   -0.91433091026536    0.94408464742248
O           2.22889104981467    0.61448844825673   -0.77536350282134
O           2.38885832317851    1.20110060565527    1.53859598084964
H           1.26355197975122    2.03942743269440    0.84446338267932
H           2.36474535056336   -0.11145001649023   -1.38188910509558
O           0.41557819984204    2.46706250733685    0.53308734965220
H           0.59693273364944    3.40601278384010    0.47860155194018
O           0.58367130255644   -1.57008181519617   -1.48843702961404
H           0.92496459893775   -1.51070979101183   -0.57584719462445
O          -2.55705528322727   -0.13624925265777   -0.06153592257613
H          -3.36211709021574    0.36531687627921   -0.19346904007621
O          -1.92711873067435   -2.65749936163030   -1.09472969430321
H          -2.42692496971211   -2.74982646906344   -1.90722919224288
H          -0.19738700957819   -2.14805902682995   -1.42550297353933
H          -2.25151553119887   -1.85548799135709   -0.65292766269232
O          -0.67348095220567    0.79735078156324   -1.53122976144701
H          -0.12824479570189   -0.01535446448939   -1.66036886220962
H          -1.87101478419718    0.25425422595742   -0.69920505871639
H          -0.12583235303059    1.40556172009335   -1.01263187646653
N          -0.63121135160593    0.33704430108545    1.78129937076368
H          -0.40290856618932    1.31052129375037    1.50032681848534
H          -0.76323182002173    0.25761095949759    2.78318638896492
H          -1.46848031426061    0.02690388695440    1.24519998338404
H           0.24105599333455   -0.25264983140643    1.46858828753382
