    26
        -50.45160701  Gyration_radius:  2.55921425825 Dipole_moment: 9.057
 S          -2.60445668793064    0.23683858704685    0.29406308292157
O          -1.46452945585909    0.24304703816735    1.24723876239145
O          -3.80821568955586   -0.25734254387205    0.86803791722911
O          -2.14407505301990   -0.78630806583327   -0.85464168224561
O          -2.66166896171301    1.50585763656109   -0.40471306184382
H          -1.52150353739152    1.40837056192750   -1.47342840074651
H          -2.14070786498055   -1.65299011808782   -0.45193599085108
O          -0.67504486703253    1.43949793787488   -2.00387476491611
H          -0.91973384060667    1.75378913774812   -2.87503662861863
O           2.54451613892602    0.28684766693348    0.06235995672417
H           3.31837093440293    0.50263102397126   -0.45888482246913
O          -0.25186559042280   -2.07781795435055    0.80091348618011
H          -0.71781382960495   -1.28892236072823    1.13763344610404
O           0.81045070380386   -0.93562796127063   -1.37928581432190
H           0.15169981550790   -0.30339908759213   -1.70342704606853
H           1.92288934725541   -0.22915867426604   -0.55166623832979
H           0.35295369151024   -1.47432304614746   -0.69005472998463
O           2.25959745603842   -1.78574080041885    1.91821375078237
H           0.55617300479977   -2.13956435948771    1.34067934146602
H           2.87003000822795   -2.47445378374921    1.65069903728160
H           2.45740534483598   -1.00579259249280    1.37392617405430
N           0.35547964796317    1.83441291877848    0.44003987150564
H          -0.41755687027702    1.17278788662301    0.85372992187431
H           0.09207131294405    1.95231582554017   -0.55769079172341
H           0.35618575236712    2.71935646718497    0.93439883770553
H           1.27934910986179    1.35568866992304    0.48270637588438
