    26
        -50.45966260  Gyration_radius:  2.59346998622 Dipole_moment: 3.976
 S           0.35524281636382    2.26142192730851    0.82015562204107
O           0.87570734349513    2.12856977942101   -0.53984890882747
O           0.79383036986515    1.16589475387046    1.65338312398093
O          -1.07617893294606    2.49564062858947    0.83818166826354
O           1.01566517174175    3.57898759114561    1.41891901248257
H           0.54850350607928    4.26747705313796    0.95595624077985
H          -1.88063359624127    1.22416045782409    0.28427000304157
O           0.54622415129847   -2.08860833887343    0.87680359992214
H           1.04702791764636   -2.63517554467253    1.48317068518120
O           0.73749551303524   -1.32967706476833   -2.96521590762681
H           0.93277143535824   -2.17900459280954   -3.36335199254887
O          -2.37883026305200    0.40225642952852    0.04004452736554
H          -3.27288787657323    0.68626807371862   -0.15652294145523
O          -1.05830286839253   -0.61263817223415    2.25821373820390
H          -0.09572265956439   -1.56736707481658    1.45356315107628
H          -0.41905640521154    0.13061396391528    2.24049953935816
H          -1.74820002882409   -0.35917112200685    1.62470983355530
O          -1.24595258724446   -1.73982224241758   -1.28178445495774
H          -0.73232629223417   -2.09333083124140   -0.54268844000469
H          -1.69113726136319   -0.95103451794406   -0.92679990260600
H          -0.11533344192900   -1.44573430382535   -2.47341585780051
N           1.78938676893843   -0.27686398388396   -0.73767200124135
H           1.51656820209428   -0.64966161748497   -1.68114378630061
H           1.41030046650606    0.72628113987064   -0.65067989752035
H           1.34901467946712   -0.88152441273511   -0.00605283565431
H           2.79682384168045   -0.25795797861192   -0.62269382870544
