    26
        -50.45160701  Gyration_radius:  2.55927185674 Dipole_moment: 9.057
 S           1.00009763895787    0.37554216312539   -2.40522910762283
O           0.78879496563842    0.75943299587583   -3.75821866958757
O          -0.07778193717564   -0.49763842847661   -1.87249406221660
O           0.91611026427344    1.69520032370867   -1.49444384063511
O           2.29321999288770   -0.17903818022416   -2.05555386181705
H           2.47667732154778    0.19387427563987   -0.54615412460505
H           0.09613959408305    2.12698045782635   -1.72803000594436
O          -1.75349188790047    1.20264662027500   -0.70753728909392
H          -1.28388253490512    0.53287159662677   -1.24019188484187
O          -0.87548777875884   -0.96644508595004    2.20460062554107
H          -0.70438846782526   -1.04741846277789    3.14334847405825
O           2.50627845025815    0.23992201375930    0.45180263622035
H           3.37718896327275    0.56968014073907    0.67621831878716
O          -0.01657719205238    1.28781952670827    1.33263287443110
H          -0.63042192474824    1.43123367875406    0.57299520784128
H          -0.55338755223778   -0.04257389248052    1.93552183645058
H           0.86406287417572    1.17366632423126    0.94514744089472
O          -3.30537953335349   -0.36666581566120    0.95689391669340
H          -2.47075761466842    0.71310161605698   -0.26717643210664
H          -2.52853419310098   -0.70666426420542    1.43080461767813
H          -3.81397667805280    0.14606030187844    1.58694411504014
N           0.74158806031845   -1.76111124442364    0.18392558838284
H           0.03789142660220   -1.67617001266431    0.94689496376360
H           1.57750092224424   -1.20219544100296    0.44390515978070
H           0.98238255987118   -2.72576770426683   -0.01339002722977
H           0.35613428067717   -1.27634349302051   -0.72321646985431
