    26
        -50.45788913  Gyration_radius:  2.41132648659 Dipole_moment: 7.658
 S          -1.78294625026889    1.15899269672528   -0.78521945743154
O          -2.77562470761495    2.10920025923449   -0.41295867175648
O          -1.78147050702315   -0.03598664040710    0.11188740530756
O          -0.34817227944267    1.80094867211353   -0.57717785812692
O          -1.74607314334121    0.72150792396758   -2.16876620236281
H          -0.24032998769347    0.38273843964228   -2.37949353493792
H          -0.20475531040394    1.98825409534959    0.37710547568362
O           0.38866921584379    2.00589024625757    1.93564514571194
H          -0.05873083150364    2.68098384751194    2.44772057324778
O           1.37252080563661   -1.88254029082923    1.12649758906289
H           2.14032046306472   -2.33527232817602    1.47639348545418
O           0.68131279907905   -0.00577756566420   -2.46045541226414
H           1.01836931397892    0.28696447227418   -3.30789875175833
O          -0.60010164024717   -0.35473638307662    2.47722366814077
H           0.05350545674127    1.13009896850719    2.27400646522807
H          -1.21250681126646   -0.27034980060365    1.71832980593777
H           0.05859982109710   -1.00922760926512    2.20283032634505
O           2.06750736509317    0.36984639045111    0.00313639090617
H           1.59829688982914    0.43553265369134   -0.84677894764960
H           1.74121210499973    1.09918831474095    0.54290750278639
H           1.70351128434041   -1.02147095814102    0.74177593936324
N          -0.40909467319581   -1.89225719491087   -0.91346799370149
H          -1.07949470556285   -1.11069991627012   -0.48881710580695
H          -0.94405332263966   -2.67879787312930   -1.26199154298638
H           0.11010312671421   -1.41093774957717   -1.67208253713729
H           0.24942551378853   -2.16209268041326   -0.16035173726183
