    26
        -50.46770580  Gyration_radius:  2.51890353262 Dipole_moment: 3.780
 S           0.78649539304664    2.03084385727883   -0.15836578895470
O          -0.58097816179312    1.68201389017432   -0.51423526566428
O           1.76009916299730    1.15183783539940   -0.78178140775823
O           0.96000022880670    2.13790455362013    1.27866832251023
O           1.05682313922880    3.46774756052952   -0.76021791751686
H           0.42891132899572    4.01162972031867   -0.29567568598035
H           0.70213425767607    0.80738480567049    2.10665882616589
O           0.53038262238226   -0.07609879706437    2.53215100417448
H           0.72992562545326    0.03210012695319    3.46324438888776
O          -0.15539079569966   -2.24974884302851   -1.37758500065484
H          -1.03578726530757   -2.29712217830483   -0.93214104459242
O          -2.47807582538018   -2.05366004595499   -0.12001249993081
H          -3.22701747017146   -1.85464390329653   -0.68345880098962
O          -1.95205901958732    0.16609386669380    1.23805068120406
H          -1.24409106347233   -0.00951590094183    1.87290667636156
H          -2.33925807847451   -1.25061270527744    0.43893998243822
H          -1.56740704412125    0.78209570216503    0.58687079989283
O          -0.10554055277689    0.11735110540664   -2.61016590915689
H          -0.44806009310587    0.70334729753380   -1.90696885207339
H           0.82248500972904    0.35861793551421   -2.68158174812568
H          -0.20975885906846   -1.47255562955788   -1.98195288619469
N           1.52914865905476   -1.25190910836743    0.27532990205218
H           0.80042672822259   -1.76122113930489   -0.38576684960300
H           1.72377478551187   -0.31287662927621   -0.16456103010120
H           1.12859829268146   -1.06693745642083    1.20997526192429
H           2.38421898515765   -1.79206595042306    0.35167484167383
