    26
        -50.46770712  Gyration_radius:  2.51874342699 Dipole_moment: 3.828
 S           0.92843836150138    0.08384849970198   -1.97264394069403
O           1.80890354948082    0.79659277166144   -1.06375763312533
O          -0.47396189205915    0.39542558875817   -1.73951914670878
O           1.16857423872857   -1.34760394772720   -1.98785946896324
O           1.27758731662660    0.61952806777813   -3.41883609176533
H           0.73486424701097    0.07593320662323   -3.98086243702519
H           0.84492254936843   -2.11283595843044   -0.63376458623794
O          -0.38040544993550    1.48971828686860    2.14998866620823
H          -1.24332254334357    1.00886410554292    2.15724547401104
O          -2.62935157347535    0.12263567083455    1.85496869592706
H          -3.38073250134911    0.64284513550972    1.56720767297367
O           0.62544193828974   -2.49714361981318    0.25792861711438
H           0.87206697835885   -3.42239924286094    0.21850875239097
O          -0.20109681025326    2.59541231693040   -0.27254827096679
H          -0.39961360285296    2.04912552191762    1.33818940904143
H           0.73843767316153    2.69575701110122   -0.45053688302497
H          -0.46978246158786    1.84595767114357   -0.83942154992658
O          -1.88508926669259   -1.33480867311503   -0.23561980131266
H          -2.40874348642704   -0.47487234019743    1.09941615116645
H          -1.16662287232076   -1.92616986839990    0.02737661535901
H          -1.48173234542205   -0.70021533218243   -0.85697597095449
N           1.43974659825153   -0.13759236982257    1.37331356197934
H           1.09251142084958   -1.09774997618581    1.21304984901664
H           0.64831325710136    0.51682744899163    1.78955157390574
H           2.25393950308548   -0.14650263892915    1.97808292606874
H           1.68670715415855    0.25942269354451    0.42751781547728
