    26
        -50.45526438  Gyration_radius:  2.81472684257 Dipole_moment: 3.542
 S           0.32103241125448   -1.26576814894478   -2.57477808034204
O           0.99682559863123    0.03247513992804   -2.58694991773733
O          -1.10905429138770   -1.13756436115090   -2.37897075919634
O           0.96523371174761   -2.18474544516683   -1.65553923780405
O           0.50556662942830   -1.87838918422344   -4.02636574916025
H          -0.20791362273997   -1.46034903937799   -4.49802458413951
H           1.20704042557927   -1.80191829229708   -0.15849123633227
O          -2.67649395961176    0.09393092530559    2.29084863318939
H          -3.50255166566061    0.51867139497429    2.05558825647806
O           1.29462470067665   -1.45515393122170    0.77468668060506
H           1.49587464615573   -2.21794074287492    1.31853672429016
O          -0.22051203676843    2.23195944675347    0.54358375816745
H          -0.78430867992945    1.49374180028957    0.23835082430462
O          -1.16298947893021   -0.26056188360973    0.07716716581773
H          -1.26552002040466   -0.58479074908979   -0.84734494939033
H          -2.23949097470606   -0.14211569070510    1.44774200999917
H          -0.40645985997076   -0.74372974727699    0.44325584847828
O          -0.62640770840166    1.63483316686308    3.14772634890628
H          -0.05687451598887    1.06620077675433    3.66687125711010
H          -0.29516821410714    2.20609313707852    1.51962064188677
H          -1.43094490234496    1.10630329208222    2.95544972860693
N           1.87109100433885    0.96255394229085   -0.33920604619990
H           1.54797325510045    0.61927967634652   -1.30640975136175
H           1.09414312616744    1.60734563465347    0.03843308898893
H           1.91994586121626    0.12539790695087    0.26136441987600
H           2.76533858064472    1.43424100565193   -0.40714506504306
