    26
        -50.45568707  Gyration_radius:  2.56671399795 Dipole_moment: 1.982
 S          -0.93712143872862   -0.19378658539335    0.31389140225652
O          -0.59652994261041   -0.39921079214104    1.70944127280416
O           0.01535065732730   -0.91709937973281   -0.56615000498680
O          -2.32163096264630   -0.82900831543382    0.07690101612454
O          -0.97837820803444    1.21107631865528   -0.04751437290814
O           3.05620771926693    0.78899001978092    0.81779137849744
H           3.31299397003529    1.26540578409240    0.02640821501261
O           1.04412390746374   -2.18439606137947    2.60782304205905
H           0.35821086847235   -1.49721717888806    2.40188367859539
H           0.57959543024015   -3.02142771163365    2.66379277367315
O          -1.97371636725590   -0.98732174457235   -2.44213588143294
H          -1.04346001041056   -1.12234191037792   -2.21766716166761
H          -2.36127569315049   -0.94337793361979   -0.92392884625282
H          -2.05261552490840   -0.03282261218690   -2.70265325213945
O           2.17547032658799   -1.55217393685589    0.42534344932912
H           1.24883870660306   -1.30950345198169   -0.06168480322944
H           2.62232239772265   -0.63385519698484    0.59167990110401
H           1.87027201841010   -1.89740271909284    1.34142518625170
O           0.88049398368433    1.94864668961901    1.66844877122418
H           0.54675385750586    1.44026488491619    2.41408877845843
H           2.27011058189584    1.27734908962583    1.19598712992836
H           0.19283540483050    1.82963412187590    0.97879916285590
N          -2.00038407956665    1.68184170299768   -2.66274016617862
H          -1.38211365400430    2.22714577338381   -3.25007789772718
H          -1.62732890034494    1.70322573610262   -1.71191576897749
H          -2.89902504839628    2.14736541926993   -2.64723698267509
