    26
        -50.46770677  Gyration_radius:  2.51884923576 Dipole_moment: 3.803
 S           0.98088717030960   -1.11505418952880   -1.59946114258171
O           1.13606055305204    0.29422910901130   -1.91417077573488
O          -0.35536132477363   -1.42887990498118   -1.11541084386496
O           2.00991153372851   -1.61173839223870   -0.70441704502348
O           1.15766207011498   -1.88399220961387   -2.96975651563974
H           1.10732361413512   -2.79717044873239   -2.70580509184448
H           2.00115654819713   -0.99985202776933    0.76145302018608
O           1.92028853922614   -0.54985718874669    1.64574722511275
H           2.66286298834442   -0.85409933530595    2.16973239128244
O          -1.48563768101232    2.15105687437430    0.38418282189331
H          -1.89627010877971    1.57268626509804    1.07173335105856
O          -2.44333841554065    0.34767929302467    2.07073819909698
H          -3.30511302200208   -0.00177230802860    1.84002346570922
O          -0.69253358365061   -1.57925692106833    1.55125933126096
H          -1.80784678747735   -0.39971706634718    1.95203798233563
H           0.18849838457103   -1.29514517352535    1.83084693991117
H          -0.64989229715877   -1.62993880253595    0.57807948743796
O          -1.63372789410216    0.76801838850160   -1.89383409445077
H          -1.32982505661743   -0.11227245227517   -1.59736200667990
H          -1.70907131852347    1.73053614483515   -0.47920908496776
H          -0.91444048063765    1.08776627789521   -2.44590024606406
N           1.03118322070293    1.67493036430692    0.32918160204257
H          -0.04371466811812    1.92212118353657    0.43675286379749
H           1.59869606932754    2.51477130804338    0.36571527742102
H           1.33747534602253    0.99507117892171    1.04488067266458
H           1.13476661063862    1.19988000312957   -0.60703778434618
