    26
        -50.46770711  Gyration_radius:  2.51937040524 Dipole_moment: 3.823
 S           0.63502233454651    2.01954752686818   -0.53717640642375
O          -0.76245016764387    1.61867193096255   -0.47238705373267
O           1.43495818331491    1.10151139020633   -1.32887646688622
O           1.18972345970156    2.26079569153544    0.78236864349898
O           0.67569908627154    3.39989708434064   -1.30741290236907
H           0.20525633522829    3.98215682811193   -0.71953854990841
H           1.21584442931758    1.00621433737169    1.75598455842174
O           1.19965499008518    0.16233744368457    2.28390214798800
H           1.64016004248845    0.35644924337763    3.11258836641319
O          -0.43902753070895   -2.36780993668925   -1.09034541315320
H          -1.16175171427580   -2.38755890334481   -0.41726916176393
O          -2.33546657225202   -2.09373503194762    0.73815464641825
H          -3.21723862164455   -1.95940059859848    0.38827116731332
O          -1.54894733272105    0.24914722897172    1.70830653469797
H          -1.38048043526083    0.80890323799039    0.92750285396917
H          -0.68826884353793    0.14210284209781    2.13601029608893
H          -2.08215310738800   -1.24068137339904    1.16786519497092
O          -0.81837562418932   -0.12147823154793   -2.48157171573919
H          -0.68620716125336   -1.64941892079215   -1.71879431919464
H          -0.97714382141935    0.52107405322326   -1.76248210680268
H           0.04401016514083    0.12580492945847   -2.82740757619345
N           1.59227623229852   -1.19994019562618   -0.05347128091866
H           0.73124566344855   -1.77753031712388   -0.44408682936442
H           1.62357674127148   -0.30212725583178   -0.60675807695720
H           1.45404643254964   -0.93620100471465    0.93625446735357
H           2.45603684661876   -1.71873202843494   -0.16963100772042
