    26
        -50.46911892  Gyration_radius:  2.45465443315 Dipole_moment: 4.003
 S          -1.26390925388238   -0.79135618880545    1.67044246465442
O          -0.56314594415322    0.47979270858412    1.88737165028677
O          -0.57164430723125   -1.92884211271485    2.20283424290255
O          -1.63665747795790   -0.92173365676417    0.26841260746654
O          -2.62691191798397   -0.67388663033123    2.48360430283444
H          -2.48984949182090   -1.28763770049072    3.19856192280610
H          -0.31072477629174   -1.81993812298652   -0.17731859759098
O           0.55780648032791   -2.23975408476634   -0.35853863724583
H           0.57882387926253   -3.00959781300289    0.21496438270748
O           2.13451977723097    1.44985960033385   -0.78534919319864
H           3.01112013815210    1.83464824730759   -0.78081812897930
O          -1.62495718550708    0.59547706524773   -1.94336349055396
H          -1.88819263299830   -0.05735476343092   -1.26970535916291
O           1.87911856362318   -0.33508569810979    1.07071293129085
H           2.12244489206911    0.76161852119550   -0.05331410939805
H           1.10032812855092   -0.06402318375834    1.58666235280039
H           1.58878685304229   -1.13331112411641    0.58801926228116
O           0.80078286217224   -0.38542855758816   -2.49018601284691
H           0.82024689227401   -1.17931957484152   -1.93934730704605
H          -0.81891547137763    0.20946865424639   -2.36088066978682
H           1.37995163195616    0.25650733408812   -2.05398654301658
N          -0.43689663112840    2.08109826823030   -0.18852894002316
H          -0.76857379997900    3.02591500539730   -0.03265582691972
H          -0.99513231317831    1.57381041944223   -0.97300151603868
H           0.56751637583139    2.06640694426861   -0.45259957174125
H          -0.54593527099898    1.49266643345391    0.68800779352265
