    26
        -50.45526439  Gyration_radius:  2.81484138609 Dipole_moment: 3.538
 S           2.76225618217577    0.46812054694281    0.69703928256488
O           2.25900838383864    1.61096771885198   -0.06647985886511
O           2.75549064769074   -0.75579235770734   -0.07887804778634
O           2.09527726213031    0.35946433578050    1.98077215481837
O           4.28734032647646    0.77521185765266    1.00694749168175
H           4.70409499468053    0.48241095024153    0.20258661753511
H           0.53598357878943    0.29864227033389    2.08568130284057
O          -0.46087958141616    0.25548226559994    2.02925243932087
H          -0.75732456490194   -0.05192455783894    2.88701137172820
O          -1.76563482928486   -2.90623663403291   -0.93944549327168
H          -1.55479654560148   -3.35672137559053   -1.75847379504164
O          -1.18341076886270    0.61844895204202   -1.88069162190838
H          -0.57730638181505   -0.09543515816667   -1.59973126143314
O          -3.36794695756698   -0.73039725350470   -1.03802727711017
H          -2.89863820925353   -1.59261244156815   -1.03382448158378
H          -3.75436803911910   -0.63781970862136   -0.16650414505065
H          -2.07720538599610    0.26449974718132   -1.69378439311617
O           0.18730123923559   -1.13273661580035   -0.33969891821866
H          -0.96823950104482   -2.39470389287872   -0.69477008882914
H          -0.11753335069283   -0.80022761818124    0.51830107396844
H           1.17104667226768   -1.09355209470374   -0.30727232495204
N          -0.27439857270683    2.11203807630093    0.04518232630399
H          -0.71330614054036    1.61778318997486   -0.80633566126141
H           0.78942795043129    1.96661715793743   -0.02459729367775
H          -0.49937893279253    3.09955532286618    0.07648313623372
H          -0.57685946611419    1.61891733690272    0.89925747513379
