    26
        -50.45526445  Gyration_radius:  2.81521020059 Dipole_moment: 3.547
 S           2.56601866532722   -1.13927327192397   -0.67744643372497
O           2.71616549200817   -0.29511461844280    0.50877256191365
O           2.15213983813008   -0.38093749867894   -1.84084512187770
O           1.73593268369378   -2.29569828453693   -0.39794711888858
O           4.01290340029067   -1.69470282857370   -1.01571122403687
H           4.37767594439026   -0.97230687729798   -1.51704683009145
H           0.30473119835953   -2.14147574651945    0.21391555640370
O          -2.68510925759220    1.17599317649223   -1.96196168872803
H          -2.57416395618457    1.94123898259987   -2.52791583749891
O          -0.59471960782402   -1.92070664188479    0.58935080568358
H          -1.11637734093227   -2.71987016702012    0.50367632992101
O          -0.51855349921651    2.05906987709892    0.89885025361115
H          -0.32435420161936    1.67180016885548    0.02229700759753
O          -0.26729876450474    0.28997187756470   -1.13221233787487
H          -0.51992207243547   -0.50160969069271   -0.63290367957146
H           0.62416229530353    0.09773441118109   -1.50466194934243
H          -1.78901720763330    0.81159892877389   -1.81497538025891
O          -3.16727048736787    1.57538734904321    0.66862367138590
H          -3.11849571774284    1.47862745483978   -0.30702253149508
H          -3.60139622244918    0.78415425394540    0.98940051261775
H          -1.49441784507449    2.01965372288823    0.97013653777951
N           0.65023946134898    0.02799368030486    2.02807453711220
H           0.04572974051416   -0.76985108989871    1.77889222714958
H           0.86485027925541    0.04747309883157    3.01820271404383
H           1.54870028930191   -0.08347453066716    1.44653852611557
H           0.17184691248363    0.93432425368808    1.69391889203032
