    26
        -50.45612305  Gyration_radius:  2.45604418357 Dipole_moment: 8.967
 S          -1.15355348494330    0.58011587039069    1.67216704624137
O           0.19138509640426    1.10780438296714    1.36305168779638
O          -1.37167878739053    0.47897053174344    3.08218793993849
O          -1.14668246469598   -0.90008833612853    1.06602970380680
O          -2.16609890986746    1.27269139975970    0.89569195577903
H          -2.03606985862204    1.36369202934657   -0.63753604341808
H          -0.48415123227401   -1.32236291293247    1.67323331422834
O           0.68949571514647   -1.30671662359773    2.80777948992251
H           0.19937535094782   -0.60809136232573    3.26825861950817
O          -1.88867158733252    1.43770484217671   -1.63226154992461
H          -2.61401379008614    1.97400498187183   -1.95549979372586
O           1.35009634014220   -1.04243707227650   -1.82817501457237
H           1.66717300601760   -1.51769968589738   -2.59695173661759
O          -1.23282198913393   -1.25284730269150   -1.62418640972952
H           0.36656260979760   -1.22294372235404   -1.76855110177053
H          -1.33553298929601   -1.31606287914786   -0.65831107018621
H          -1.59885428531797   -0.38149508504876   -1.84731159409412
O           2.55507716807339   -0.99058089331395    0.73798083246102
H           2.11511755898678   -1.06139594701976   -0.12209188761138
H           1.38513984035253   -0.87115139418432    2.28516451910698
H           2.86936012293693   -1.86982928737652    0.95766055430754
N           0.74821407559254    1.50745199874078   -1.06087561902024
H           1.36098426869983    2.30438689442701   -1.18576417004279
H           1.17006582552448    0.63857352116320   -1.43183181705792
H           0.54513444402778    1.34279217860116    0.02806649766300
H          -0.18505204384601    1.65551388312828   -1.48792434306836
