    26
        -50.45568734  Gyration_radius:  2.56683159641 Dipole_moment: 1.978
 S           0.75839941984491   -0.52496911042839    0.41211659469593
O           0.48502305363573   -1.23096870322455   -0.82585648627332
O           1.27291647787186   -1.51987893706899    1.47135020839846
O           1.76887744400993    0.50437736516913    0.25370852846606
O          -0.49608992979713    0.05646544036067    0.95332633609954
O          -0.90259739945287    2.55694163015586   -1.81052989163033
H          -1.70756849037833    2.20129551480798   -2.19099559444428
O           1.66196744110257    2.88544589988901    1.25488938119766
H           1.94827669839926    2.84214421773984    2.16908518459017
H           1.85013810238549    1.99414014888926    0.86056161849905
O          -0.78631336731160    2.48826910052970    0.71782678938835
H           0.15276340400957    2.81746641056321    0.96689115220615
H          -0.87510216214994    2.60277124588372   -0.30661083956064
H          -0.71446256331471    1.42557574342302    0.85829883004279
O          -1.05941974464258   -2.42408465718342    1.95669023707743
H           0.43876697310548   -2.00252346115315    1.76697769312200
H          -1.35366761533829   -1.52524537314186    1.75795408119999
H          -1.23116275847550   -2.95213075250481    1.13404549040752
O           0.97279213315557    0.83732479730100   -2.38421077970666
H          -0.16440216866078    1.94620939013756   -2.09584460547936
H           1.77997074893935    1.11890040418326   -1.94278083766659
H           0.74702292320279   -0.00836101818528   -1.94099106620476
N          -1.20766485520447   -3.49639230202886   -0.49365066007482
H          -2.02609289733344   -3.48364704441939   -1.08911338381069
H          -0.72184899602799   -4.36901272219225   -0.65807576881992
H          -0.59052189163336   -2.74011322750098   -0.79506222171616
