    26
        -50.45526447  Gyration_radius:  2.81494773671 Dipole_moment: 3.540
 S           2.75788163354891    0.27406256749182    0.81350699094995
O           2.46995978350123   -1.13804151026084    0.55774205901847
O           1.97108517010079    0.80412922524522    1.90892389658575
O           2.67820786549937    1.05580658431069   -0.40599567046337
O           4.26821329598486    0.34165465839217    1.29359195110250
H           4.17882304705266    0.14309146580046    2.22037793699426
H           1.39981064040338    1.02695312261073   -1.30670965900119
O          -1.50355626064752   -1.70443630725917    0.39850514005449
H          -1.16039848175098   -0.91058356367619    0.85471556194079
O           0.53049025585279    0.94076913225540   -1.79212231339873
H           0.50498125355194    1.67020123265756   -2.41298984624068
O          -2.95616385846083    1.64466390831482    0.99101031664243
H          -3.28680324319326    1.55550993207696    1.88598210959927
O          -0.41439392288722    0.72918688615903    0.85486931528294
H          -0.19423645041681    0.93392589885947   -0.06690191599981
H           0.43154407060492    0.80319498140372    1.35406583453275
H          -1.99972320737179    1.44179889860754    1.03081626660479
O          -3.49846249886767   -0.31919902985278   -0.78695186822310
H          -2.30737204290309   -1.38954414854446   -0.06365325591605
H          -3.43409926877776    0.42381983993898   -0.14864656416140
H          -3.43981929277165    0.07659578730527   -1.65717324513287
N           0.59856241308352   -1.70167100071235   -1.13340733690125
H           0.50121991954343   -0.83190941997738   -1.67904776513965
H           0.80220199527438   -2.49975277946033   -1.72364685925035
H           1.40003473166085   -1.53037244305929   -0.43593727880690
H          -0.29798755756600   -1.83985389866097   -0.55092380063113
