    26
        -50.46422813  Gyration_radius:  2.57427983828 Dipole_moment: 3.113
 S           0.82290063399576    1.04287288047638    1.89144568519113
O          -0.42271628798255    1.54467829547067    2.42596646297548
O           0.87435852583163    1.09743675128030    0.42763500002852
O           1.18407582460514   -0.28164494037948    2.35687858854275
O           1.93415088693496    2.05136630717341    2.40848125898665
H           1.39566392530521    2.66570946650440    2.89648099910643
H           0.52119793917079   -1.62434376064954    1.81369162049123
O           0.02015433009224   -2.38669197044650    1.41988457272190
H           0.07809678664135   -3.09532658027998    2.06203997686937
O           1.51687371161256   -0.18182894363688   -3.13610430015501
H           2.41148116665518    0.15243579137648   -3.20902746946384
O          -2.16038452712645   -0.00948623379641   -1.27723759252112
H          -3.04675237501248   -0.23898141421529   -1.55767395925521
O          -0.03124513639579    1.73450423722158   -2.08197524301942
H           0.95252886254706    0.59953678434039   -2.91733133982145
H          -0.91171332426929    1.35297802255924   -1.96444952180840
H           0.34678561519174    1.76561400349631   -1.18817370325180
O          -1.94561291708599   -0.31331515555689    1.30894626464623
H          -1.48104385962495    0.41295201191786    1.77336501952786
H          -2.17311652011793   -0.00724936372865   -0.28211878709827
H          -1.41945657353470   -1.11286426226436    1.45402514604804
N           0.31547910179518   -1.07175276426989   -0.93425087518787
H          -0.66376102994774   -0.87956759856872   -1.22082308550312
H           0.91656757874389   -1.06568424222776   -1.78341686202884
H           0.60492039008323   -0.23996895067802   -0.33858200495552
H           0.36056727190495   -1.91137836114292   -0.34767586106861
