    26
        -50.45568724  Gyration_radius:  2.56659246422 Dipole_moment: 1.980
 S           0.29862261552049    0.39404721475219    0.88245766111668
O           1.39961837493373   -0.47024975005025    0.49930266039483
O           0.20048102893107    0.45464443459370    2.41970718238000
O           0.46557124989476    1.75313861769259    0.40208394198851
O          -0.98541422213118   -0.17410929528112    0.39954985533219
O          -0.21596082746062    0.35543658306063   -3.23125003228101
H          -0.17341831154412   -0.56699003046653   -3.48918302280243
O          -1.38206556180284    3.21072674561400   -0.66801755411814
H          -0.60231840466684    2.77989821036117   -0.23020159347794
H          -1.90590873684279    3.59932922885650    0.03494905616110
O          -2.02112380860106    0.91743373496900   -1.54703690001680
H          -1.88575242602320    1.90541308367667   -1.30644607640500
H          -1.34859262248957    0.70514199131771   -2.30398888468505
H          -1.62390988952308    0.40401731990927   -0.69094929603251
O           1.89973740667439    0.77924198192465   -1.76592418602222
H           0.63240152096326    0.54801726950766   -2.73880634022521
H           1.84471681656627    1.67264030658114   -1.41309916031902
H           1.82768070017049    0.20925033241971   -0.97052338093717
O          -0.92384550585772   -1.82645899003805    2.57766315369516
H          -0.22297947848238   -0.42689224755737    2.66433111226676
H          -1.31837710660120   -1.59403446729148    1.72659566972038
H          -0.16177667749250   -2.42637730037118    2.36679510296345
N           1.30558185649442   -3.04010417723248    1.72184108618004
H           1.50510797694430   -2.17853531177584    1.21042147400036
H           1.33732925687254   -3.80637743169398    1.06123382342497
H           2.05459475593328   -3.17824806370792    2.38849462785340
