    26
        -50.45048643  Gyration_radius:  2.70105840416 Dipole_moment: 6.740
 S           2.52784331533137    1.21457463531082    1.06797790285808
O           3.69838076148093    2.02048415336592    1.18433618340303
O           2.73695577007886   -0.13445046470969    0.53484210917332
O           1.64150231045320    1.94371322436267   -0.09852106003309
O           1.64769802135222    1.18321096138098    2.22421064529786
H           0.17771411787506    0.71685442230507    2.14859554427814
H           2.15448417357702    2.73874340752604   -0.19952667293414
O          -0.72148277732401    0.27263583457713    2.09730264980405
H          -1.02395465675059    0.19577410971258    3.00321179725150
O          -0.16793080758372   -1.30589074208926   -2.11233476573664
H           0.48885040080132   -1.49085772652396   -2.78432181314874
O          -2.36485672149557    0.87408904380618   -0.04482556946718
H          -1.86227330728931    0.85147954432102    0.78406234883677
O          -0.42632007813367    1.22917539202282   -1.83241400583750
H           0.31333375651683    1.53880019067385   -1.28892222535332
H          -0.27042455133355   -0.29718201843848   -2.08974536381675
H          -1.21649843873417    1.25775643639803   -1.24041120182201
O          -2.55923156445686   -1.79557365558896   -0.81128474813717
H          -2.58780596210282   -0.05389655756290   -0.23167496870755
H          -3.32935570497013   -1.96505072205883   -1.35554773992997
H          -1.79941197708238   -1.74364982569694   -1.41255966184832
N           0.57279705045397   -1.47288355653241    0.49386289685853
H          -0.10050262057954   -0.94178649711868    1.08541709978530
H           0.25513229360103   -1.49430185392985   -0.50113711668316
H           1.52303635676288   -0.92701190599580    0.52901721550160
H           0.69232081955305   -2.41475583953827    0.85039050038515
