    26
        -50.44204364  Gyration_radius:  2.56034916221 Dipole_moment: 3.824
 S          -1.93780524687056   -1.27717770068809   -0.49077254670212
O          -1.52022848582234   -0.53908115195048    0.70976565023211
O          -3.15205725149437   -2.01157711816571   -0.34676965415287
O          -0.79412329716882   -2.41627773711592   -0.65748163895040
O          -1.82275390840976   -0.43116315479046   -1.65981693856459
H          -0.48429845713496    0.30595509530550   -2.11677099284739
H          -1.38432766051809   -3.15786076627122   -0.59039174333306
O           2.53802311627566   -0.76512176418462    0.88616766090586
H           2.96897725494472    0.08406384694703    0.76999304620736
O           0.37549402447941    0.72761530479861   -2.38381978115180
H           0.33428254578734    0.81516073854851   -3.33746209795959
O           0.45138151245951    2.07295226204568    2.33866771202491
H          -0.16603737976378    2.43988351570112    2.97332253333963
O           1.68966711575649   -1.43309973970300   -1.46801132264425
H           2.28684636529425   -1.08485071202912   -0.03027288653383
H           0.90525352081162   -1.96409384087116   -1.27567907621788
H           1.34487542802551   -0.60107210794682   -1.85707381150373
O           0.43278595277828   -0.44486608725163    2.24052010347127
H           0.45959434030397    0.59033158894560    2.38295738733697
H          -0.38086763496065   -0.59134537665853    1.61097311903837
H           1.29961905249281   -0.65588044699793    1.70632911429937
N          -0.72694242032716    2.10645637512328    0.03091687625707
H          -1.21063331886468    1.21056986343053    0.11810097894691
H          -0.11081729112003    2.01862319145955   -0.77137622499516
H          -1.42181893250781    2.80643765581967   -0.19575015361029
H           0.02591104561184    2.19541826646581    1.41373468716817
