    26
        -50.44204352  Gyration_radius:  2.56023666696 Dipole_moment: 3.825
 S           1.20152565963425    1.55169718594780    1.33191728083581
O           0.66422273614491    0.21375674934052    1.61754811580835
O           1.78685507203145    2.21097231963838    2.45320193736007
O          -0.11949064135372    2.43033750449541    0.99112226582970
O           1.98087666912819    1.52484775393452    0.11224918858303
H           1.43518726014023    1.02743613937250   -1.30161882884817
H           0.00311083229474    3.06532056701297    1.68720130173036
O          -0.48726310129883   -3.07584027864126    0.51820971153303
H          -0.11680951353248   -3.66192568060785    1.17992442085723
O           1.05096392640207    0.73448777989937   -2.17046030294287
H           1.53656016496212    1.21567162377772   -2.84233638978301
O          -2.72371412325949   -0.19943960713368   -0.59525909102479
H          -2.65139558812821   -0.87251172577011   -1.27506475010883
O          -1.31318590401888    1.79705354866583   -1.45131635779496
H          -1.00238185195066    2.21121390397573   -0.63517294886469
H          -0.51495079610458    1.38928475336726   -1.85007037848527
H          -2.26285597423965    0.61636463462326   -0.95190089704690
O          -1.50844398502656   -0.97998875430270    1.47424613423379
H          -0.65283800042378   -0.40039166814470    1.58302372957460
H          -2.05303075731815   -0.60799364984965    0.67037585665061
H          -1.14814012117869   -1.90273453879883    1.14043728298150
N           1.46430518357551   -1.63375392389031   -0.39135505494558
H           2.41295619322176   -1.98549570137040   -0.41467092599097
H           1.28735633758449   -1.17687685379495   -1.28070420475794
H           0.30435404238426   -2.59167395581221    0.08189344437481
H           1.42622628032223   -0.89981812590912    0.31857947013812
