    26
        -50.44204345  Gyration_radius:  2.56040555643 Dipole_moment: 3.827
 S           1.56962617395712    1.54203193836246    0.88700792898927
O           2.64225999586728    2.47591895354658    0.99559549911939
O           1.49990386036353    0.83304632679390   -0.39857706767878
O           0.23214321353295    2.46107099781175    0.89089035681516
O           1.40672646049613    0.60701676204254    1.98008035831926
H           0.16085428846437   -0.37316621412839    2.15509724054132
H           0.68552070878638    3.29267147083929    0.96619774886027
O          -0.64414032157010   -0.94985264987029    2.24372498355668
H          -0.75278081077608   -1.09767134004986    3.18455104141070
O           0.32718423711698   -1.94511385022212   -2.46544378406618
H           1.09873361220121   -2.15870961673633   -2.99242673818371
O          -2.44281132867563    0.39666054851264   -1.30024213147651
H          -2.73177895452688   -0.51814320581929   -1.29980659789878
O          -0.11313230537543    0.52753612972584   -2.26175849650850
H          -1.08223039188178    0.55328479534614   -1.88572200539801
H           0.54143297345832    0.76103541619444   -1.48932313795627
H           0.06701136106979   -0.48495148156584   -2.44921862569661
O          -2.14100234102581    1.02335218955428    1.19461302808778
H          -1.44091473164016    1.68935014244738    1.16994538974167
H          -2.41246925174908    0.68619187098932   -0.34086196285702
H          -1.72724517276278    0.23407271464784    1.60488775408664
N           1.08013048725600   -1.94949746136121    0.01410137944495
H           0.32985055845883   -2.02273136086855    0.69434250315122
H           0.60267943892583   -2.06180275219158   -1.48462103633954
H           1.40673032958181   -0.98205875194104    0.05330326268066
H           1.83771792030900   -2.53954157211417    0.33366310923292
