    26
        -50.44204354  Gyration_radius:  2.56030328886 Dipole_moment: 3.826
 S          -0.83058362796039   -0.45865717551262    2.17391894024532
O          -1.11928478987266   -1.11683267123610    3.40598641682699
O          -0.24532878160213   -1.32214806580400    1.13847152301014
O           0.36980251451345    0.57095874784800    2.53770226800185
O          -1.88601722258355    0.35339984453418    1.60626141331277
H          -1.70609478833367    1.32990903930211    0.35803818642575
H           0.42515817309363    0.33583655102052    3.45664346142732
O          -1.54826634747858    1.94691627201294   -0.40537815455883
H          -2.18170543294600    2.65812091017208   -0.29709125109653
O           2.49325326437319    0.92079561450105   -0.86573842808336
H           2.25339362550788    1.08249467573553   -1.78045879536123
O           0.58551053910731   -2.02413972386923   -2.35110988851231
H           0.38671469469977   -2.95820626187610   -2.43269972674475
O           1.81972711390868   -1.42859852523255   -0.23655372456761
H           2.15193548163751   -0.46326722834773   -0.43386141074594
H           1.01992730732160   -1.36824253500141    0.42405123951202
H           1.38420483124569   -1.74302949826426   -1.13333973912955
O           0.92474614194896    2.43349136553158    0.53411353592348
H           0.05123682832697    2.36793953761900    0.09240396782016
H           0.82577172802368    1.94127808894409    1.36005793447251
H           1.96252626231185    1.56770307075094   -0.31342095976178
N          -1.52319303069234   -0.88563330510907   -1.36484072488583
H          -2.45022170576808   -1.25310059481280   -1.53743707316772
H          -1.30845010453469   -1.04462056017835   -0.37857073487116
H          -0.28693307674372   -1.56387508762520   -2.07113231464139
H          -1.56782959763369    0.12150752518457   -1.48601595098239
