    26
        -50.44204341  Gyration_radius:  2.5604084117 Dipole_moment: 3.823
 S           0.97596062848266    1.44506556926509    1.60830096186662
O           1.87424005388619    2.34058836555962    2.26071658508588
O           1.51257666247748    0.81179231785148    0.39535574459218
O          -0.21109313740919    2.39988736576801    1.04916223276870
O           0.32465354190909    0.45505264833899    2.43973439887421
H          -0.85949504233675   -0.49730042717649    1.95551192956144
H           0.15412528882763    3.21268946193186    1.37890947099681
O          -1.61321703515744   -1.05469418030090    1.62449783120545
H          -2.14666765368852   -1.25117717774535    2.39626610592548
O           1.43976216268864   -1.81229094715808   -2.14809213295743
H           2.36844595287583   -2.01673276153987   -2.26797314884997
O          -1.55907744132955    0.53540453333903   -2.25768422991038
H          -1.81370982231844   -0.36989736991694   -2.44736031910317
O           0.95038854053266    0.65607589490501   -2.01840638010540
H           1.19896616918187   -0.34882871046438   -2.16366964400015
H          -0.08245387702017    0.68718156487191   -2.13410758788472
H           1.17068743733244    0.82774358540565   -1.01758084727629
O          -2.45210920501098    1.01511555317268    0.12573767763065
H          -1.82144552219773    1.66151669596185    0.47028179426794
H          -1.97852358564931    0.77084146065295   -1.37804818873003
H          -2.27593280246841    0.19295619765511    0.63125337515763
N           0.95128270092071   -1.97643487805980    0.39156086802105
H           1.22696470339959   -1.99136069543672   -1.16111242104131
H           1.22091070811519   -1.02221707905175    0.63837897525119
H          -0.02921678496931   -2.06665085308878    0.63951329162689
H           1.47397734928071   -2.60432612484325    0.98885367680559
