    26
        -50.46021506  Gyration_radius:  2.60114365605 Dipole_moment: 5.810
 S           1.50532089387154    0.42527012835551    1.56071726447610
O           0.40288661859083    1.16124479076392    0.98867309243164
O           2.49555043722561    0.03717686630372    0.55706566172498
O           1.08360106292831   -0.72536199433217    2.34515032977504
O           2.23975695958545    1.40423022309307    2.56096057649733
H           2.87053132111075    0.82892892732068    2.98171606246397
H           0.06916058764325   -1.64322025191747    1.55261898317242
O          -0.50371390133738   -2.19205666238883    0.94797856601728
H          -0.66246744696692   -3.01714604258631    1.40959450729036
O           0.31992372088857    0.01990122219202   -2.98527429130358
H           0.99717020166661    0.43501649040895   -3.52160532572827
O          -3.08877052822552    1.42149968484054   -0.77260804310607
H          -3.55928867143076    2.18505983479132   -0.43556957679613
O          -0.52719003316541    1.91531510377419   -1.46932283587356
H          -0.12483892853460    1.75918626230854   -0.59775677376194
H          -0.08133951083479    0.77023570434682   -2.43947826494973
H          -1.49165656195813    1.79040177236653   -1.33274204467490
O          -2.07128432567521    0.15561228993224    1.35162684427663
H          -1.21228115655937    0.61756212374325    1.35568008406501
H          -2.81863961198202    0.89983413288813    0.01854720302366
H          -1.85095311152118   -0.76531190834123    1.16473507642585
N           1.20234906874639   -1.51661274489611   -1.05904729149099
H           0.81882779976562   -0.93235086577965   -1.87337063613854
H           1.76059532267557   -2.28935134960775   -1.40706256896276
H           1.79780953800327   -0.87547077264240   -0.44028073893322
H           0.42894025553292   -1.86959295486345   -0.46094584989155
