    26
        -50.46021515  Gyration_radius:  2.60110253999 Dipole_moment: 5.809
 S           1.70104247848920    1.38846700701053    0.24858619818405
O           0.38717619309803    1.49129243173610   -0.34077368597281
O           2.50749631584008    0.33691850928213   -0.36972809977127
O           1.67229360984642    1.23693130894516    1.69539242862663
O           2.44267268968845    2.75315565224689   -0.04422287897982
H           3.24363244650665    2.66213347659587    0.46180021281131
H           0.69624461247798    0.07938726060699    2.15053741910595
O           0.11675247426805   -0.71199286004382    2.33178824461716
H           0.21160210586963   -0.90164093534652    3.26672349547660
O          -0.33354761366108   -2.24080837195282   -1.97031088567944
H           0.12695574551682   -2.39809052712687   -2.79603730460591
O          -3.38790609832237    0.48635147314846   -0.66350364427298
H          -3.90743610934158    1.26190110664421   -0.87935808169641
O          -1.72757063313065    1.20507598838612    1.30519883636650
H          -1.38862175241366    0.44834842505507    1.79923614849417
H          -0.98604204292411    1.47643158046108    0.73261175637611
H          -2.86471772220110    0.72577635318407    0.13652628985820
O          -1.16767305750302    0.18261416183610   -2.16988767589451
H          -0.73856547914063   -1.31952732426558   -2.06507914904518
H          -2.04152140263966    0.24307621989893   -1.72582297684885
H          -0.56704370629608    0.71699967591517   -1.62256145515106
N           1.20283532659211   -1.84591277716168    0.11135015123880
H           0.65212704021021   -1.59707728473734    0.95702036553032
H           1.79031549354212   -0.98392067217250   -0.13428779206167
H           1.80450009808229   -2.64038683415285    0.30290508225468
H           0.55499899743398   -2.05550304400580   -0.71810297892504
