    26
        -50.45212783  Gyration_radius:  2.45281647585 Dipole_moment: 5.977
 S           0.08341697241010   -0.05447442059880    2.29846419639742
O          -1.11661569930300   -0.24425153794446    1.50916403429595
O          -0.06750041966616    0.75367952039991    3.45351107898856
O           1.18273417139491    0.52217138580340    1.36158883370708
O           0.68760170951537   -1.42120283035468    2.63831648894933
H           0.92941704979604   -1.81114378352016    1.73951712993814
H           0.89020437780468    1.42076441658198    0.99682029920958
O           1.16767160986155   -2.33546270504574    0.29046000350249
H           1.39009666015638   -3.26777170599647    0.33500543515695
O          -1.07833669723947   -0.04862958130535   -2.35178821926539
H          -1.17296477051650    0.02774647247049   -3.30149463154882
O           0.31545833496632    2.71847892430884    0.39801314043448
H           0.11221243428815    3.31226925503726    1.12372046316696
O          -1.28378506501650   -2.04741324633001   -0.47646029375459
H           0.23746842272924   -2.28689359420974   -0.09176545491189
H          -1.45654330095621   -1.47579845653173    0.29367792824524
H          -1.33303008652031   -1.45287993204457   -1.24541428410888
O          -1.90744571625269    1.59466414304265   -0.29981555622782
H          -1.84836415432421    0.94341624318388    0.42189531153096
H          -0.56922471532845    2.39227280394758    0.04798315900400
H          -1.76535247580005    1.08061368488457   -1.11446395558134
N           1.44028088571574    0.34591293081455   -1.60643672669700
H           1.56486254544132   -0.27050035221266   -0.80907216085308
H          -0.11083876496678    0.09678187882214   -2.13514325393890
H           1.47806316224033    1.29465335317890   -1.25092986123411
H           2.23051352956911    0.21299713361952   -2.22535312440482
