    26
        -50.46365345  Gyration_radius:  2.41760976218 Dipole_moment: 9.111
 S           0.81410190639564    1.36098321952949    1.19319326514421
O          -0.32926064248550    1.46030686837160    0.28679647161689
O           1.61783060906417    2.53093136479296    1.27986532811600
O           1.60689513122217    0.14790360503973    0.85047639075170
O           0.20062434107778    1.04203257702198    2.60774526129301
H          -0.39355255555646    0.28254939161093    2.46584275021331
H           2.48781339411171    0.92301265935864   -0.43888703282424
O          -1.50206343111505   -1.05993340911092    2.11498783077153
H          -2.13000901825562   -1.10443401550468    2.83758921945056
O           2.68848597600209    1.50623839217603   -1.18955927423130
H           2.69537057860101    2.38543222753077   -0.79996614957703
O          -0.85300185575170   -1.23756461875870   -2.06062392235573
H          -0.85842601636912   -1.65461867160844   -2.92263911318879
O           0.23877256905347    1.08376473899396   -2.25982439416181
H           1.20876118338916    1.17374591106009   -2.18852895868229
H          -0.41830854953516   -0.33298942974235   -2.19427729458051
H          -0.07061252265388    1.40511798840715   -1.38762325643135
O          -2.47869619258367   -0.01476284584934   -0.03895642701214
H          -1.82031585375091    0.70885443816228    0.03994997591506
H          -2.22339246558307   -0.48622781618056   -0.84344983978092
H          -1.99489015306717   -0.66790177419309    1.33201383533855
N           0.29725164693320   -1.92837251564436    0.25534706394661
H           0.88073589980581   -2.75740782328179    0.25473684992990
H          -0.41597969899789   -1.96773469514069    0.99516070944149
H           0.90325462155402   -1.02892797097435    0.49043455859790
H          -0.15138889150535   -1.76999777606634   -0.67980384770072
