    26
        -50.45406805  Gyration_radius:  2.52371133373 Dipole_moment: 5.855
 S           1.40877556080869    1.54773738722013    0.91999373148606
O           1.26051924521959    2.73792620604842    0.12621914678119
O           2.50767722754146    0.68197633531992    0.47163947866423
O           0.19907472865391    0.77372320706056    1.10604978115700
O           1.83363808239412    2.04584534968712    2.37825793202535
H           2.23839426055581    2.88602194378864    2.18787597909763
H          -0.17690121106560   -0.67228075992743    1.59945702483108
O          -0.29196658242661   -1.64255082139562    1.79846003794631
H          -0.43063832271821   -1.70302530041339    2.74418551081540
O          -0.09995778677076   -1.04002102699007   -2.03090256396937
H          -0.33164174647283   -1.36966939886292   -2.89971730704648
O          -2.86492112842524    1.05292199020839   -0.31432606614851
H          -3.53379757676120    1.37923187868206   -0.91806156966330
O          -0.60849219712004    1.76789579053538   -1.55617344907188
H           0.03822468316157    2.20170391212073   -0.97163565876196
H          -0.24960273991293    0.89450227170395   -1.76157748307539
H          -2.00709369504973    1.40817424424595   -0.64957290126670
O          -2.05449658515085   -1.48049914475871   -0.41254885879079
H          -2.45174636578562   -0.58158617873616   -0.32299422635628
H          -0.90464820684038   -1.20627027198095   -1.43952269594127
H          -1.61005646361507   -1.64254764490933    0.43184609621766
N           1.63979356936185   -1.64286103872799   -0.10118206307926
H           1.05853563043288   -1.49300818616901   -0.95991582162330
H           2.06416090485125   -0.66645125595812    0.14987987534683
H           1.00184897556837   -1.90199094694739    0.67397226834949
H           2.36531775957228   -2.33489853083723   -0.24970619792792
