    26
        -50.46911893  Gyration_radius:  2.45464879834 Dipole_moment: 3.998
 S           0.46687783787080    2.09540035555792    0.63665666253649
O          -0.03472865940822    2.95700618716778   -0.39410742436267
O           1.58509580068874    1.24861091660328    0.20502614674830
O          -0.55331993811889    1.28166032319074    1.28355778448005
O           1.06017242449334    3.04558251012525    1.76719836855181
H           1.06400232971914    3.89508070158689    1.33723601819397
H          -1.50034417060119    1.08799978617049   -0.06840905833560
O          -0.84708833649724   -1.25011992914724    2.11919540193641
H          -0.90753538997734   -0.27902288270937    2.06850709955922
O           0.62664421847119   -2.13847679128257   -1.51965357320629
H           0.93772215269087   -2.65128907535161   -2.26585252552410
O          -1.92098311103412    0.93711197725381   -0.94237604583380
H          -2.13160164728357    1.81660779118351   -1.26503682721272
O           0.47937813143049    0.37889334826389   -2.10096522174723
H           0.58202280548504   -1.18373564002234   -1.82958632870566
H          -0.44570913756157    0.61295396783342   -1.89144631984581
H           1.00699880766707    0.83400733787613   -1.42227273225401
O          -1.90154911071056   -1.81751710949778   -0.27081963482139
H          -1.39665985916432   -1.57222622727170    1.36607721689304
H          -2.14324245272498   -0.93862153402928   -0.59210208192007
H          -1.11962617375740   -2.08142906936784   -0.77748862000050
N           1.44585021045022   -1.27333347871170    0.91895962061810
H           1.28148570594728   -1.77578113772988    0.02489460514071
H           1.56978957845430   -0.24444208401223    0.68981275189032
H           0.53920393910893   -1.35032997648698    1.51589741898297
H           2.25714406438294   -1.63459027718479    1.40709725824360
