    26
        -50.45212734  Gyration_radius:  2.45312927043 Dipole_moment: 5.989
 S          -1.60629613075886   -1.57718337912805   -0.49436778940738
O          -1.80416454700531   -0.42646882884807    0.36339178571868
O          -2.18583157829825   -2.78697725878225   -0.03596733152993
O          -0.07640435460197   -1.74718985048294   -0.71653176513076
O          -2.06382262566165   -1.23384888308135   -1.91615347377511
H          -1.44700577683117   -0.48619771881141   -2.19691777299533
H           0.38740387276616   -1.90771062521876    0.16917284149538
O           1.02841399272102    2.08726934840296    1.13346452602932
H           1.67956337234272    2.73123370742947    1.41277862776597
O           1.02732322481870   -2.02817847501033    1.56664726901684
H           0.65141293887989   -2.79808639988911    1.99842868084890
O          -0.49697545098099    0.71947653382219   -2.47161310036672
H          -0.78218564861004    1.15630626673373   -3.27688057198261
O          -1.24498940205981    2.08623197712822   -0.40983188930560
H          -0.48262502317715    2.27700333275634    0.16438935889018
H          -0.74206079231623    1.33745360589759   -1.71519491373190
H          -1.65166636218748    1.28678213391757   -0.02882727001478
O          -0.21780436517923    0.04008104598969    2.49510933941534
H           0.63234630715241   -1.22748409405642    2.03014100486701
H           0.22679175294037    0.84798905711582    2.18259108871342
H          -0.96429223724613   -0.08892162012104    1.88305750643580
N           2.09954048369808    0.29247145113958   -0.50488493904442
H           2.25485749163048   -0.53658513868662    0.05767807130586
H           2.93855188264493    0.46458073933193   -1.04491206143519
H           1.35312436930398    0.06889142530810   -1.15614989495278
H           1.48679459601360    1.44906162714434    0.51138265317025
