    26
        -50.45568708  Gyration_radius:  2.56691662731 Dipole_moment: 1.982
 S           0.32489467475676    0.49267080113585    0.81508510452374
O          -0.85060199707419   -0.21444655071932    1.28842542077993
O           1.33528361840980    0.64592292009942    1.96937373481334
O           1.00556817778676   -0.30146343782447   -0.23889274921205
O           0.01470871075157    1.82403879588601    0.32821982914994
O          -1.75025881949828    0.10560952319400   -2.75109907831354
H          -2.02071453261062   -0.81280093140395   -2.80185860222909
O           0.97433856072505    2.89969346232832   -1.81832437386285
H           0.57759666140708    2.62733509571146   -0.95027134529065
H           1.84745400963270    3.24325124777133   -1.62032589130339
O          -2.51163179536193    0.94044081610821   -0.40035969465440
H          -2.17900759091911    1.83568221774199   -0.28305199821210
H          -2.11018457191921    0.45623025062689   -1.88685611487932
H          -2.02257560056641    0.42017644566283    0.27250176378196
O           0.74602143513894    0.48187148313903   -2.55653559859692
H          -0.26273423294759    0.33083522130709   -2.73057490904474
H           0.87184757096849    1.49191283975171   -2.43166126179714
H           0.90295159750616    0.09502362622799   -1.56635432387054
O           2.13516440065536   -1.76558028417723    1.77687618960254
H           1.74620294738215   -0.27127982012734    2.04767140988440
H           1.35389918683787   -2.25221173774499    2.14838980808672
H           1.95408643641686   -1.65918083448364    0.83355964324524
N          -0.24918184936730   -2.67234950073488    2.59325372288006
H          -0.64538542046253   -1.82953893645369    2.17326505331983
H          -0.45121318434549   -2.64180518477950    3.58459589986782
H          -0.73652838330277   -3.47003753825286    2.20494837132707
