    26
        -50.45788896  Gyration_radius:  2.41151143986 Dipole_moment: 7.657
 S           0.45431647116311    1.78745005062577    1.32162908037286
O           0.40470082811896    3.20938223054034    1.37146552405317
O           1.22267408004758    1.29089155351726    0.14021251511269
O          -1.01084317141463    1.22576970458076    1.09434468675082
O           0.89271713939127    1.08117296035662    2.51160967728045
H           0.13473874415797   -0.27473263312616    2.40220580107263
H          -1.34323890578878    1.51397649871296    0.21545370739073
O          -0.20294254374003   -1.20572748896786    2.23973437909865
H          -0.55605388031801   -1.50865217251512    3.07702882277115
O           0.31654865649441   -1.85057337776049   -1.78247715385898
H           0.08622928966326   -2.58807018418374   -2.34811569237938
O          -1.92307628636040    1.54252467757495   -1.34940113064352
H          -2.16860568350155    2.43623504023543   -1.59262743517996
O           0.40564810261102    0.92428122116101   -2.36818287204579
H           0.84013346154453    1.19883894800893   -1.53525847024744
H           0.46281871094564   -0.04220456897471   -2.38014944583671
H          -1.09477695569356    1.33053488246176   -1.86205968616602
O          -1.67320123295515   -1.24857629498931   -0.20271209432310
H          -1.31430228278307   -1.11639444839181    0.69196938270513
H          -2.03558527464909   -0.39634785092485   -0.47168038558112
H          -0.49321336304092   -1.65461979295795   -1.23018499489111
N           1.74678858058320   -1.16509800488248    0.41276884135511
H           1.41707751810540   -1.59161052005723   -0.47211194052965
H           1.58987563273718   -0.06655727220689    0.31799028782721
H           1.12365226942609   -1.45447809809398    1.19041065362899
H           2.71792007525436   -1.37741506974468    0.60813794226341
