    26
        -50.45391484  Gyration_radius:  2.5453321591 Dipole_moment: 4.397
 S           2.42797930896349    0.30453708455069    0.18526108040658
O           2.60478178668758    0.00714472181542    1.57832555203017
O           1.55717300447050    1.48246556771042    0.00167999011410
O           1.94273315902596   -0.81730243847029   -0.60211408441428
O           3.83647821957550    0.70006827079452   -0.42898087057262
H           3.71681679881380    0.62520308819326   -1.37279169450938
H           0.96656678850112   -1.50534888050697    0.44325815581582
O          -1.05707792394258   -1.00585310620326   -2.63786861156373
H          -1.74574177019531   -1.15443109428178   -3.28705566258430
O           0.41604619994655   -1.76884546074097    1.23340004088679
H           1.04220099112839   -2.18592513591376    1.82969265202923
O          -2.33301687305038    1.03308004934448    0.38956128608360
H          -3.05730277022546    1.65530053025789    0.32094385359686
O          -0.67905778201120    1.42169479164865   -1.53105463448155
H           0.19626150327140    1.47694795686999   -1.10435769330720
H          -0.68620541670682    0.57996242635803   -2.03529435264179
H          -1.72896957215082    1.21420993094979   -0.40892598430111
O          -2.01112810672644   -1.72151959044953   -0.21359301168640
H          -1.37511130601385   -1.40738972586732   -1.79981232927266
H          -1.22462585138741   -1.94466846008782    0.30145244731262
H          -2.27875451276076   -0.83538483238839    0.07113586027928
N          -0.12354568943713    0.78289579119158    1.84653104938041
H           0.57826134654902    1.22257131504260    1.17004003364963
H           0.07171068740213   -0.25210786982683    1.77414509060509
H           0.03197972941815    1.12008702833523    2.79004976709221
H          -1.08845195915276    0.97260803168888    1.48637206005457
