    26
        -50.45406812  Gyration_radius:  2.52611199934 Dipole_moment: 5.857
 S           0.65750006556141    1.63135433225090    1.47097019448890
O          -0.15097940741714    2.78021899044585    1.16230587121758
O           1.94442321344943    1.61864570816250    0.76189216018482
O          -0.00753427651758    0.35227754372865    1.33522209869530
O           1.03146819521975    1.76407094046809    3.01917892372191
H           0.97277555509682    2.70449906933926    3.15419856460198
H           0.40643729421273   -1.16308990316347    1.23467845025171
O           0.78399249100785   -2.06771079179965    1.05253821688122
H           0.83464391989354   -2.50786402206918    1.90167564769720
O          -3.03460472454389   -0.45711876734362    0.01587695857354
H          -3.86624073901558   -0.31716946146225   -0.43925321493244
O           0.07547166797846   -0.20459912456408   -2.27574677178287
H          -0.11075453371716   -0.28810280557082   -3.21143226193093
O          -1.59665962006269    1.64071755928237   -0.80507894140929
H          -2.50528496322240    0.36175445659320   -0.13809127319722
H          -1.14163030698069    2.11279879385321   -0.08510618352012
H          -0.91066152282458    1.18550012413037   -1.31097476669917
O          -1.16753495841488   -2.06192241840800   -0.99542452507821
H          -1.91831991201774   -1.56510480425350   -0.59138204485384
H          -0.45525481074134   -0.93223002034072   -1.81361489755090
H          -0.57176848174094   -2.25669240116154   -0.25772609367836
N           2.17363998842099   -0.48620855014217   -0.65295560312161
H           1.85839429380727   -1.26665915942364   -0.04773996989801
H           1.46380523445139   -0.36134478993729   -1.41321845030254
H           2.13034096495677    0.42357016662281   -0.04679165167149
H           3.10433539307513   -0.63959064524547   -1.02400042671138
