    26
        -50.46306751  Gyration_radius:  2.5451332966 Dipole_moment: 3.902
 S           1.09215993122939    1.73475292835109    0.92864999298178
O          -0.30256004654019    1.47129050518474    0.63311508505317
O           1.93942733758362    1.55173578461141   -0.24935312221769
O           1.58858203889003    0.98409736113185    2.06444604315008
O           1.18420245991830    3.26401463069647    1.31970501687546
H           2.04882998330826    3.30440361911687    1.71444736140457
H           1.48507486189337   -0.68993812337307    2.03381876108401
O           1.34044661094039   -1.60986946918669    1.71175899874646
H           0.37915664614788   -1.69329015379003    1.62524034455755
O          -0.40931915933436   -1.45391709330865   -1.74250660476545
H          -0.92682418717074   -2.15791791163762   -2.13503746991879
O          -3.53053966294043   -0.22583557309657   -0.30540328462038
H          -4.07117680671833    0.39807828733137    0.18036234453621
O          -1.67242967730971    1.13971492749113   -1.68702181130898
H          -1.18214449680190    1.45559784694077   -0.90651516593449
H          -1.14421525469389    0.41370959360753   -2.04243422613847
H          -2.97574503776459    0.31679255465284   -0.91457726097779
O          -1.18704445916527   -1.01724672260956    0.72971990972873
H          -0.86317443269649   -0.09297124313879    0.81414068257902
H          -2.14420321945437   -0.91200179779537    0.54170942036015
H          -0.74544803701129   -1.34747824813476   -0.80769314099085
N           2.04046244098776   -0.98449545119421   -0.72404330508089
H           1.22966540395308   -1.22958787121423   -1.32498330529409
H           2.06205192096310    0.08131319554798   -0.60514353931491
H           1.85205601017115   -1.37528311873408    0.25950115155815
H           2.91270885162242   -1.32566843744882   -1.11190288605898
