    26
        -50.45406817  Gyration_radius:  2.52657805986 Dipole_moment: 5.879
 S           0.00943899811557    2.26093715122510   -0.38869537398258
O          -1.45454140314688    2.18155266171804   -0.28955855915928
O           0.48005798814086    2.42277534914555   -1.73817611994689
O           0.62650753446007    1.18412463223808    0.35710377459068
O           0.41027967307189    3.60500281491081    0.37783265378106
H           0.44374599776907    4.23392078708341   -0.33580169584739
H           0.33538384674816    0.36978586137761    1.67262410310905
O           2.69010268241335   -1.32561165651592   -0.65401595147469
H           3.18417120715581   -1.86928788778594   -1.26935071770994
O          -1.14780258812952   -1.76072815244060   -0.90333541701284
H          -1.42918048365201   -2.55972441994776   -1.35006877442975
O          -0.01118620797352   -0.15926672107278    2.44334746185099
H           0.38806566940582    0.22245907380631    3.22574662854830
O           0.70129744607444   -2.34353751744194    0.79254001039741
H           0.55362499912990   -1.70657947309283    1.50635050829699
H          -0.40428058112842   -2.03360837093289   -0.27307210467707
H           1.51180606587326   -2.02319245294391    0.32981240602823
O           0.87338180715776   -0.19240202368291   -2.25356154149945
H           0.06616848622267   -0.58546244638290   -1.89637108856134
H           0.78882772017412    0.77036354414020   -2.13440223541066
H           2.08950751532028   -0.77299966682216   -1.20922137091108
N          -2.17125472942366    0.00255280982376    0.81618381145463
H          -3.14975930794380   -0.02931095372747    1.07859524573022
H          -1.91237617374024    0.96033587068025    0.35503896554821
H          -1.54171782880442   -0.11970057231891    1.63079228807707
H          -1.93026833332782   -0.73239826103999    0.10966310321357
