    26
        -50.45966326  Gyration_radius:  2.59385111259 Dipole_moment: 3.956
 S           0.65911770535149   -2.15049631782641   -0.92471132278252
O           1.64823546272796   -1.40122448215540   -0.18503272754249
O           0.04824725676640   -1.32768727191659   -1.96754010537672
O          -0.33216596091236   -2.81510584201628   -0.10003598718196
O           1.44051194685412   -3.31267710029996   -1.67920065082284
H           0.73009876417055   -3.87331043681388   -1.97504787560107
H          -1.17703282329195   -1.76808845508485    0.77157217250780
O          -1.62666366666628   -1.13026071653757    1.38348767510491
H          -2.39900464879146   -1.58847390560368    1.71838910078561
O          -1.54739901922170    2.55539429246569   -1.47004968797034
H          -1.63863430976842    3.50590270039668   -1.39225407234375
O           1.17429747304265    1.62012967830482    1.19095813991184
H           1.99762270660382    2.01322826812626    1.48214668005687
O          -1.64419932693593    1.60003927847800    0.98192516818832
H          -0.72795623392789    1.77509915484023    1.23682267236720
H          -1.76162835702363    2.18425862818180   -0.57609213349487
H          -1.75375422491339    0.63790758423700    1.07544170993753
O           0.96819851395356   -0.71577022438717    2.26923291235964
H           1.11539496154639    0.73519621872819    1.67044761130841
H           0.01666668584640   -0.90382266996405    2.23860559233476
H           1.33140966973010   -1.13925737695722    1.46281491482028
N           0.70945421962322    1.11214807748020   -1.44769869456150
H          -0.13487969866680    1.71658057225978   -1.60704853889437
H           0.98748305548466    1.19531781202645   -0.44250261832796
H           0.43820905045898    0.09346344359231   -1.66304831070930
H           1.47837081794779    1.38150909043863   -2.05158160407374
