    26
        -50.45490189  Gyration_radius:  2.54805613154 Dipole_moment: 5.635
 S           1.16719891123421    2.01572235222956    0.40400366900595
O           0.99191494853728    2.68828895063901   -0.85714063868684
O           2.35296317754711    1.14793537945206    0.43276102523390
O           0.00398356647560    1.30380128732674    0.88923253862240
O           1.45853712582955    3.16565449692656    1.47185282479835
H           1.82882754481303    3.85180017354964    0.92567703156144
H          -0.39124389694153    0.02638234485261    1.73349563773243
O          -0.48933249423676   -0.83849748014328    2.21704153062232
H          -0.83145389453917   -0.61738068362831    3.08396436928761
O           0.34339329720690   -1.62482778986764   -1.56207186384875
H           0.67417621773135   -1.94459143390007   -2.40213906521109
O          -2.92526915273275    0.41928523096386   -0.98101877705899
H          -3.56615310522336    0.17892122029989   -1.65172391351881
O          -0.43875285851233    0.75765528949865   -2.02799031077708
H           0.07363609003111    1.49669520010557   -1.64911397655468
H           0.05021087798552   -0.66366309879498   -1.73663170418159
H          -1.33028813204046    0.81120200657147   -1.62202411253625
O          -1.95432872674648   -1.87938016167351    0.06999567480220
H          -1.55452080398595   -1.58185636778316    0.90186803023773
H          -2.68149897397362   -0.41352794534279   -0.52171026254694
H          -1.22202364093733   -1.95873391975336   -0.55772214825547
N           1.70361366556373   -1.29996371394117    0.70003664386618
H           1.24209776036315   -1.53058857471872   -0.21734017460024
H           2.03294595070632   -0.26127740931556    0.61428925454413
H           0.98120212108797   -1.32955234202922    1.44110286172030
H           2.48016442475756   -1.91950300150179    0.90130583573882
