    26
        -50.45447825  Gyration_radius:  2.54364941533 Dipole_moment: 4.582
 S           1.14315648080213   -0.23174776452168   -2.17021571318146
O           0.53209801783853    1.07980947010881   -1.87612117603810
O           0.20977747386519   -1.10156953759776   -2.82774274018204
O           1.73344915305900   -0.79943032812757   -0.96951266809254
O           2.34553582090420    0.05925710676765   -3.16343726566179
H           3.03064286821151    0.42972886549758   -2.61177672048929
H           0.51221695997603   -1.66595372331594   -0.41091441086728
O          -0.36856746853915   -2.11069926380632   -0.26744249040927
H          -0.40087978916413   -2.78756520554844   -0.94805374602539
O          -1.89970570233864    1.14449552334222    1.40758962663497
H          -2.58339421427797    1.41728286419540    2.01970850436454
O           1.68160971561411    0.13940286948581    2.48881046129439
H           2.00799362718331    0.68118102953255    3.20824577150170
O           0.80450324835063    1.92170374962491    0.68121443114481
H           1.51496474899871    0.75270566886950    1.73832657415115
H           0.83614505050800    1.65838401379284   -0.25628243323196
H          -0.12894456141252    1.90472161479544    0.92938891493165
O          -0.73156109766742   -0.98088051929954    2.29887878327256
H          -1.46104864173852    0.33213597876984    1.81614704996716
H          -0.63206229542417   -1.58282498329692    1.54953176323748
H           0.18161895817707   -0.66561933418618    2.48569722275196
N          -1.70279309444452    0.08577452668118   -1.02987903557391
H          -2.45976860682294    0.00078108378178   -1.69924013683266
H          -0.87379865290684    0.60111895151444   -1.46819592458283
H          -1.98217580523453    0.57915705030975   -0.15022561186697
H          -1.30901219353686   -0.86134973739246   -0.77449903019857
