    26
        -50.45490185  Gyration_radius:  2.54725690232 Dipole_moment: 5.615
 S           1.37468270409224    1.77541667087233    0.73448688113332
O           1.16959546755571    2.73558605765912   -0.31900533254341
O           2.47463058320935    0.84157098546332    0.45575081795127
O           0.18989533132200    1.05511457859211    1.15053303490347
O           1.84740529198328    2.61985314844989    2.00383701879354
H           2.22481359144150    3.39272916258778    1.59559649171171
H          -0.25567488952319   -0.34997556817526    1.72264012945963
O          -0.39628815973451   -1.29365472926409    2.00768320954708
H          -0.65170425761360   -1.25401991973928    2.93000803416279
O           0.07446331174834   -1.23809639238480   -1.91287754781649
H           0.31030691056463   -1.37761365355552   -2.83064798831239
O          -2.93681438207524    0.84853592051916   -0.58000832929942
H          -3.64658571173183    0.81853276725932   -1.22319802852424
O          -0.51623155192837    1.23838367399613   -1.75584357917463
H           0.08920627807843    1.82984430217745   -1.27026840711897
H          -0.14051356152559   -0.24396342514260   -1.83845212174373
H          -1.36570969284533    1.26052669241214   -1.26546722926649
O          -2.10807824073785   -1.69662764861762   -0.17135475359276
H          -1.62124005238330   -1.63128411780907    0.66474738241651
H          -2.73750560457158   -0.08380981786795   -0.34549762566651
H          -1.43536755884807   -1.68090969351744   -0.86693534190181
N           1.62478264011267   -1.54805259353903    0.22603281959967
H           1.07624624595183   -1.52512150329138   -0.67183776413611
H           2.04103199630785   -0.54444671909428    0.34560883623682
H           0.96070613564108   -1.69662795344030    1.00630053966985
H           2.35394716550790   -2.25189023455033    0.20816886351036
