    26
        -50.45730958  Gyration_radius:  2.44887088692 Dipole_moment: 7.977
 S           2.29209086949266    0.52514360434783    0.56977461295513
O           3.61532164133825    0.37730040383171    1.06222184662852
O           1.26803544733415   -0.08541546078988    1.47303450071489
O           2.05671948296751    0.07999000382310   -0.79702250843016
O           1.90120603164136    2.06504933320691    0.56540100592580
H           1.22541688761034    2.10287873403819   -0.13276742949573
H           1.28897933527468   -1.16854806901669   -1.32216146801099
O          -0.27482721632486    2.14630277809869   -1.05217098444277
H          -0.13349883977984    2.70928339164601   -1.81395871875822
O          -2.33831019579322   -0.95734856691739    0.68132655894441
H          -3.06811329881075   -1.46524168251951    1.03612076471715
O           0.72749550273335   -1.92026539500726   -1.66724638390364
H           1.25120062333793   -2.34551609406917   -2.34697598637529
O          -1.31422873461279   -0.12605271466847   -1.80817782719566
H          -0.60967999823857    1.27377559845645   -1.41218029192138
H          -0.60754804302950   -0.79336147865452   -1.90228017635156
H          -1.85291014281759   -0.42850918827956   -1.06240953078225
O          -0.14038665260515   -2.27966420165344    0.88740730586760
H          -1.51505968063535   -1.54054448248370    0.77612197275515
H           0.14787583471902   -2.41948261550165   -0.03120894110937
H           0.47048524993684   -1.59407189389638    1.22910448709351
N          -0.90638291596728    1.19400413874158    1.42815704749258
H          -0.83412399093363    1.82542036708637    0.61956627199628
H          -1.62489618039638    0.46176598243962    1.23802905302526
H           0.07287207009003    0.65757716107876    1.50052038289176
H          -1.09773311654094    1.70553034666492    2.28177442577655
