    26
        -50.45568722  Gyration_radius:  2.56705439754 Dipole_moment: 1.980
 S           0.29883090947313    0.06180300277008    0.95968971781195
O           0.94325464016611   -0.43373322369083   -0.28292777758171
O           0.34975393080465    1.51098032023258    1.01594051245884
O          -1.05520502028390   -0.45132728762505    1.05561977287206
O           1.13978930273910   -0.47660254939258    2.13435690491440
O          -1.26642037766266    1.53920515045276   -2.58313266876196
H          -1.71301867470718    0.80220885925642   -3.00334127671940
O           1.81492090584440    3.02238156756903   -0.48532627098089
H           1.24784185564818    2.55894927196400    0.18463454939227
H           2.70211114808083    3.04055618476895   -0.12179042363296
O          -2.17099333971965    1.61633411112436   -0.13797393479811
H          -1.67972429977436    2.29327528891161    0.33762156835128
H          -1.66719649767630    1.62663492238175   -1.67148871814187
H          -1.90568307263474    0.78177400188656    0.30443030448889
O           1.19716159198734    1.18216874290792   -2.12063071394975
H           1.12231233413726    0.43360992036531   -1.35335615841284
H           0.21587257589616    1.36234069673020   -2.39504139587417
H           1.51169289750868    2.01048302707189   -1.60417440529272
O           1.43260797663644   -2.76733792509717    1.05773343135027
H           1.33225564112947   -1.43015988815711    1.87001013427338
H           0.52101116536047   -3.14422135583786    1.16763808714323
H           1.41698342811433   -2.28064445748143    0.22299229668891
N          -1.18199715609736   -3.28280538570926    1.32717138569267
H          -1.32640906445567   -2.27446050140059    1.24932383623953
H          -1.51528832981208   -3.56808694894917    2.23933180399930
H          -1.76446445070350   -3.73332555504671    0.63268943846443
