    26
        -50.45966209  Gyration_radius:  2.59326529649 Dipole_moment: 3.982
 S           0.93133166563071    0.06949807977053    2.24429908113160
O           1.96548780359614    0.36877147117166    1.25482580235481
O           0.17417680603307   -1.10125821323382    1.86638123726795
O           0.12382796143048    1.23206718526270    2.56100020723088
O           1.69977915394735   -0.30163817976422    3.58685834773300
H           2.02379305497150    0.54590977842860    3.87502759773884
H          -0.73533673867051    1.70607040713096    1.29308063661760
O          -1.34142066632255    1.93333775322691    0.54187128588169
H          -1.65738462097583    2.82065328792949    0.71946825176903
O           1.46928668130794    0.58713969938063   -2.93425423620904
H           1.37981641864821    0.36115391491143   -3.86094958645614
O          -1.22944174008895   -1.61948237147550   -1.13844826139701
H          -1.53706553085362   -2.52116322200164   -1.23607449579059
O          -0.96714703203600    1.04564676504490   -2.04494465992680
H          -1.24200246734057    0.12858932221114   -1.90899187959464
H          -1.04716023139251    1.46617792600713   -1.17135552404353
H           0.58496625220160    0.93166468790711   -2.64814253578906
O          -2.27604005470525   -0.63639331136023    1.00604069133263
H          -1.47161090013204   -0.85600982804147    1.52191781297465
H          -2.22808304690429    0.32340314079840    0.87144083203931
H          -1.69747712052754   -1.26371530225301   -0.31937932060816
N           1.42069834430508   -1.06132660482881   -0.82310258026724
H           0.41046807527315   -1.33339177282439   -0.80754401722106
H           2.01019005062814   -1.88653500747361   -0.82004830999073
H           1.58966938954739   -0.47037872090698   -1.67501476171796
H           1.64667849245446   -0.46879089503973    0.04603842493235
