    26
        -50.45966232  Gyration_radius:  2.593342577 Dipole_moment: 3.981
 S           0.64677566858448    2.31342396966039   -0.37466108795781
O           1.34471342286090    1.43389340103046   -1.31141224893060
O           0.72582670856169    1.80292682943783    0.97441942056294
O          -0.69653641962185    2.63185087033411   -0.81986620288991
O           1.44315346298051    3.69046094080193   -0.38558666097954
H           1.20246318218856    4.05640197711065   -1.23094130622604
H          -1.63144408317613    1.32970836388500   -0.83020844815048
O          -0.01731806192839   -1.33349875877853    1.91079305243840
H           0.26189376643030   -1.51159761502702    2.80940345495407
O           0.93920028212171   -2.75974641820473   -1.61436599616356
H           1.02781774227453   -3.70292531793765   -1.47125766406800
O          -2.23304627490694    0.54691667988456   -0.73704497334204
H          -3.01275577341338    0.75229430158117   -1.25525045410437
O          -1.33280476567247   -2.05022972232346   -0.48685135321538
H          -1.67017070713119   -1.16203163314133   -0.69585707877247
H           0.01172205419328   -2.52756082632018   -1.35262073451795
H          -1.02400103829828   -1.99364730997480    0.42776840808440
O          -1.50731538464806    0.77375612529155    1.93038420515422
H          -0.74236508052752    1.33970226647576    1.69366189040553
H          -2.02389922195740    0.70291983742202    1.11202151946406
H          -0.63035477858929   -0.53556836845223    1.97377803825466
N           1.79808461978965   -0.76727063164311   -0.04301465414337
H           1.61591167083869   -1.56347774729038   -0.70359665827912
H           1.61021653771864    0.15315713054795   -0.56756855744642
H           1.13639709501619   -0.85161597449906    0.76315743631432
H           2.75783537631287   -0.76824235986515    0.28471664355875
