    26
        -50.45730965  Gyration_radius:  2.44897566135 Dipole_moment: 7.983
 S          -0.32187519978913    0.67421606277028    2.30159889683245
O          -0.16353925387476   -0.72566813377921    1.79916485940863
O          -0.84961204650427    0.72733991580462    3.61841871666674
O          -1.00911893154563    1.47307402353205    1.29603324919150
O           1.16699962288230    1.22886180722998    2.30848573172514
H           1.27339182465712    1.54181658506143    1.39414695376716
H          -1.92546248867678    1.02843415924452    0.11860538938048
O           1.66023904152823    1.71176891977480   -0.31580732164751
H           1.86984428557547    2.63189047212056   -0.47905167823166
O           0.33171241664051   -1.89167441823415   -1.77678329314239
H           0.29510458290483   -2.69087458240713   -2.30250444583038
O          -2.44449803233055    0.74451895737024   -0.68725165701762
H          -3.22448900098695    1.29994262014392   -0.70368505802415
O          -0.09677530715651    0.87851517185843   -2.05719799916644
H           0.93885352389779    1.47289703141946   -0.96829576290654
H           0.08068733017516   -0.06615562673832   -2.17546172227817
H          -0.99095569149908    0.92532917239482   -1.66744217074750
O          -1.65310860940319   -1.80207145922240   -0.14136934801257
H          -0.48222689902219   -1.91237568459377   -1.17359086679182
H          -1.21185665715406   -1.52566093509032    0.68857899311152
H          -2.16038608146645   -1.01817765624688   -0.41473188964892
N           1.82103446034673   -0.95247241035527    0.25733387824742
H           2.59152968037938   -1.47641208810099    0.65576640201463
H           0.97707331051172   -0.87428466733211    0.98762116730427
H           2.09936690048806    0.01112252760680    0.02925630124363
H           1.42806722942585   -1.41389976423583   -0.59183732544823
