    26
        -50.45730960  Gyration_radius:  2.44915905009 Dipole_moment: 7.988
 S          -1.62874602075723    1.74877968784545    0.38419020079828
O          -0.23390412502963    1.69809657396274    0.92191453222148
O          -2.44412580091265    2.69147866276049    1.06374740297731
O          -2.15498178908943    0.39471552058238    0.27905620093755
O          -1.42205384383459    2.21894488168773   -1.11932051659529
H          -1.24864487763695    1.37802450127015   -1.57541861291583
H          -1.71427255415177   -0.90918123606626    1.00639897778564
O           2.38908669343289   -0.99143154834799    0.39477459513372
H           3.22848413776243   -1.28128598390881    0.75229591529537
O          -1.38251339133546   -1.76337911239389    1.40615251705735
H          -2.16113232072719   -2.22214608351459    1.72307627868970
O          -0.50971128691133   -0.02054414527108   -2.35067136356189
H          -1.08504811876769   -0.29921409312248   -3.06378320227790
O           0.10395143069215   -2.06815768092482   -0.85263883138988
H           0.98511421632831   -1.87799626628492   -0.49874746938473
H          -0.48589016711686   -2.09218261714500   -0.07467544501179
H          -0.36582001303383   -0.83047494894589   -1.77928811872712
O           0.77387012969479   -0.36042319974005    2.29613729742984
H           1.80032484390766   -0.77904660156439    1.19166576660621
H           0.40429929593245    0.48546427721307    1.96771872471746
H           0.03804858119866   -0.99121862810995    2.21160928327169
N           1.45248170018493    1.18289731001991   -0.88308687208528
H           1.99896444879095    0.38325202544636   -0.49532485893943
H           0.71916798245020    1.47241816255576   -0.08935767369314
H           2.04429135178881    1.96844437626223   -1.12721758700123
H           0.89875946714039    0.86416613573436   -1.68920716133895
