    26
        -50.45406832  Gyration_radius:  2.52499688284 Dipole_moment: 5.865
 S           1.40097580429532    1.70076003611518    0.62254387891699
O           1.24587291835712    2.72481764312196   -0.37541572409339
O           2.50048663353373    0.76961909932034    0.33508383128811
O           0.19448916614360    0.97173548579859    0.95388903288082
O           1.83140021268119    2.45916145987737    1.96232189149691
H           2.23622839791939    3.24895413151837    1.61800042952755
H          -0.18082937662459   -0.36358116568305    1.69726258268688
O          -0.29447509074693   -1.28195343766051    2.06852000781700
H          -0.44008076370311   -1.17001048599220    3.00852215080221
O          -0.09025176601994   -1.39983689453545   -1.80474197922434
H          -0.31842987455310   -1.88195200456253   -2.60013927776149
O          -2.86926055529513    0.96134452038454   -0.51075534032426
H          -3.53681573134521    1.16918518064286   -1.16614450587168
O          -0.60919748625317    1.44552074170527   -1.85323633735254
H           0.03279644434499    1.98445961486423   -1.35767100512379
H          -0.24447842403100    0.55156881825097   -1.89337282073029
H          -2.01132147663711    1.25292578140549   -0.90223918781492
O          -2.04867157071136   -1.54308326753863   -0.13786345437789
H          -1.60580921448333   -1.54308974081873    0.72283012714390
H          -2.45054487278222   -0.64532495470436   -0.21736457385581
H          -0.89647230497726   -1.45825383189828   -1.19543943537272
N           1.64483679924670   -1.62567340259684    0.20804480717829
H           1.06657009006082   -1.64233955485683   -0.66535359495663
H           2.06358778587305   -0.61711117512518    0.27259692291867
H           1.00503416867046   -1.73864213940014    1.01598967459943
H           2.37436008704701   -2.32920045762010    0.19413187960356
