    26
        -50.45730945  Gyration_radius:  2.44942927066 Dipole_moment: 7.990
 S           1.68585690751873    1.44655642067030   -0.96413506417223
O           1.39302293111242    1.26970791773431    0.49189132729161
O           2.46286717612523    2.60437397020049   -1.23051405028969
O           0.45198738599370    1.30552795358859   -1.72527162819035
O           2.53236881947083    0.15102140817006   -1.32469400528870
H           1.83799911722501   -0.50143134802230   -1.51789046687809
H          -1.02918683936043    1.45210381825599   -1.26862830725690
O          -1.22294148001265   -0.95388034774552    2.10687157273103
H          -1.65772695158940   -1.08721219913528    2.94925642125882
O           0.65731253597210   -1.80699600097116   -1.44358325245470
H           0.62492351035113   -2.22385228306170   -2.30522011484118
O          -1.98113372324741    1.46320753939750   -0.96342015487268
H          -2.45477077418992    1.99114680549327   -1.60688674067303
O          -1.75940293238351   -1.22959349578365   -0.64478169376500
H          -1.73347406452012   -1.28141472842918    0.32194104885105
H          -1.95428270367821   -0.29426746483933   -0.84705634616768
H          -0.28640594319010   -1.55283797403498   -1.22407365159507
O          -1.02849440333509    1.55838933316410    1.58490649320664
H          -1.19712367968917    0.04797759488445    1.95715561636687
H          -0.10151074148949    1.62388464664455    1.27443598168537
H          -1.55954128028942    1.68282004868649    0.77930723966190
N           1.27738264294005   -1.16724414698853    1.13703722875578
H           1.22990876760061   -1.68178024713855    0.24761177308355
H           0.36679702319940   -1.25147138797598    1.63922569004113
H           2.05745053214193   -1.47856240180296    1.70407178525800
H           1.38811813732426   -0.08617342096087    0.87244332825391
