    26
        -50.45966328  Gyration_radius:  2.593692856 Dipole_moment: 3.957
 S           1.31880214750436    1.74139954233825    1.06798367496253
O           0.85904098205132    1.97477769745519   -0.28146170636027
O           2.00871233856151    0.45666631607287    1.17309295063695
O           0.29886546548128    1.90063809283221    2.08714143654438
O           2.41121049624434    2.85654390633753    1.37444919067316
H           2.52217899176810    2.77544189625699    2.31656533096850
H          -0.90666053128094    0.86423123535188    1.88239910917563
O          -1.69661564544476    0.29483056285369    1.69457039837834
H          -2.20933218741566    0.28256317132433    2.50426802097126
O           0.60376238951559   -3.26567449538692   -0.25129329049334
H           0.39482270847048   -4.01069061802394   -0.81624413714916
O          -0.92421581225112   -0.18392947550868   -2.13010675195831
H          -0.97841870415719    0.08934851717444   -3.04638618303417
O          -1.74412134152620    1.76823054984004   -0.65404832644439
H          -1.99926679229306    1.34010131428650    0.17861885985108
H          -0.82220806137373    2.06813257728540   -0.50710821666052
H          -1.29544075599978    0.58752091078118   -1.59776697629303
O          -1.62698664314630   -1.89080876229064    0.01076262522386
H          -1.64289277316752   -1.20304783584388    0.69861359880925
H          -1.59312495838612   -1.40868361398265   -0.82682836737400
H          -0.26414922200691   -2.85329799279228   -0.00754492236275
N           1.46529283640184   -0.83961359737455   -0.99119758615869
H           2.25073745161759   -0.76317924574131   -1.62820868424374
H           1.27760379968332   -1.83975183903271   -0.72971908382963
H           1.69248579676703   -0.29475469652373   -0.09163891169486
H           0.59991802438034   -0.44699409769012   -1.42891207214265
