    26
        -50.44528944  Gyration_radius:  2.48597160234 Dipole_moment: 3.309
 S           2.00226830198538   -0.17485511305953    1.09871107263042
O           2.08365364354942    1.14272332300251    1.65230569416984
O           2.69573761732395   -0.32938698763564   -0.19244557820948
O           0.64907431219558   -0.69479921542956    0.97882446794159
O           2.76178558337259   -1.14663459943853    2.10051717061511
H           2.64651108550361   -2.00573193269848    1.70475370336418
H          -0.78130613490299   -0.21319377662713    1.59023649311093
O          -0.72494331871643   -2.49815331009004   -1.18076092852024
H          -1.09691608196971   -2.96674630593457   -1.93052547010786
O          -1.69140538946696    0.05115148638210    1.86855499387102
H          -1.94476341297384   -0.56419530177901    2.55779373222097
O          -0.53401881533115    1.32348630610006   -1.72756108467156
H          -0.31335363169626    2.00601786649720   -2.36249388677163
O           0.97773814505173   -0.73971308983402   -1.88609728585524
H           0.39150931099738    0.09718915461085   -1.83696211504707
H           1.76597556120331   -0.58624007225677   -1.15504426605942
H           0.37870169787748   -1.50659171926479   -1.54549989505564
O          -2.39198288920872   -0.54603865925474   -0.68431739158879
H          -1.95090491467449    0.17084813798746   -1.16003084333418
H          -1.41431403577521   -1.83232711399999   -0.89621309750671
H          -2.28498997541851   -0.32167388607814    0.26214890200674
N          -0.23867230633907    2.33283465859257    0.61298597628104
H           0.64604239740607    1.98126289693967    0.98878434058726
H          -0.25105353011249    3.33800757067938    0.73254838730822
H          -0.40736278538876    1.74396561781243   -0.78270622461370
H          -0.97301043450001    1.93879406476755    1.19249313322872
