    26
        -50.45568734  Gyration_radius:  2.56698935174 Dipole_moment: 1.980
 S           0.84571663270238   -0.43930931602373   -0.33130867857328
O           0.44258485585225   -1.27476459736178    0.78459440395378
O           0.30091639448320   -0.89894903617288   -1.59534482915328
O           0.45463499411049    0.97055892230005   -0.07818267793955
O           2.38220344317215   -0.45219450646028   -0.45745075104462
O          -3.23019200567098    0.32569908360662   -0.31908429008061
H          -3.45864806756253    0.52476393527916    0.59048222196352
O          -0.71692346485337    0.60896502453308   -3.43186310541275
H          -0.30818536993489   -0.07099420817314   -2.83522232626972
H          -0.00022751616823    0.97830404434113   -3.95107033107946
O          -1.47211981164731    1.83372117566711   -1.34144772624480
H          -2.25635783481586    1.28044993586620   -0.95488887726228
H          -0.62032824879009    1.51864684392558   -0.76753775496578
H          -1.27686004459942    1.45043860459959   -2.27267794277200
O           2.69363090037873    1.17488346405000    1.47844571741983
H           2.68565629889898    0.15451745549248    0.28824945044332
H           1.85469959038169    1.55172385351090    1.18159584852182
H           2.46962410876938    0.59309404560441    2.25079993506813
O          -1.89831389464825   -1.91578534661964   -0.24216369043029
H          -2.79113622628799   -0.57226486223937   -0.30743703713321
H          -1.57994982191753   -2.10208948558666   -1.13076958545051
H          -1.07737365159288   -1.75857809413402    0.27157490130445
N           1.77736460906892   -0.64294009204700    3.21938820204754
H           1.21964746153081   -1.01171217669679    2.44700723960124
H           1.14978656367590   -0.45044146568567    3.98982695487512
H           2.41015011534357   -1.37574321169147    3.51448473859639
