    26
        -50.46161839  Gyration_radius:  2.73486394925 Dipole_moment: 3.825
 S           1.41257351465950   -1.09038186725423   -1.78665826403223
O           1.90687774662911   -1.02144906014070   -0.42970104236858
O           0.87014122434249    0.18613357807865   -2.24693506816315
O           0.46249001746251   -2.17422460920490   -1.99042838769055
O           2.65942287248704   -1.40358767192945   -2.71318867253865
H           2.26181976461741   -1.43687789679655   -3.57753190062409
H          -0.89520414262347   -2.07965818379912   -1.17110741247786
O          -1.78185680558643    3.06671412453905    0.32569256487612
H          -1.51455859407776    3.83544645931156   -0.18029796018908
O           0.95189054702655    0.27904998043572    1.73404105563046
H           1.64891908144216    0.09058078089782    1.08301978168525
O          -1.70632872238933   -1.93901185429315   -0.60919553131355
H          -2.39611375677506   -2.47422833610825   -1.00349669064666
O           0.26405684723891   -2.26212359124863    1.40309827147652
H           0.95057006411172   -2.14055857260801    0.72543728415045
H           0.64663995309491   -0.62325205243807    1.97786345480624
H          -0.56293597278132   -2.34445465403599    0.90966158124831
O          -0.06894641778426    2.75957454415985    2.39814278918781
H          -0.34188837254194    2.72690897131232    3.31618379821232
H           0.42054034105009    1.93600743654804    2.22905997488514
H          -1.22444962800782    3.06212904063741    1.13239022501182
N          -0.81478793069997    0.62000337179151   -0.30822315227282
H          -0.17729526153341    0.57913071613869   -1.15451551842382
H          -1.43944418179027   -0.20021490852957   -0.35761115397046
H          -0.19951047012875    0.52757045887110    0.53437823844342
H          -1.33262170746344    1.52077378572057   -0.24007826492110
