    26
        -50.45683661  Gyration_radius:  2.52388967587 Dipole_moment: 8.089
 S           0.29275307062978    0.65894678698571    2.15468167857293
O           0.48929031224995   -0.79147651171511    2.27472923127546
O          -0.74938333805591    0.98659753340401    1.21931718716377
O           1.55460556200389    1.33136821589160    1.88467368276913
O          -0.18186422230569    1.15173867022477    3.58001714128565
H           0.59285695511430    1.00038886291398    4.11159192401067
H           1.91380551293088    1.11222850200203    0.36971292371734
O          -0.81692765322808   -1.84377133088544   -1.57878346557217
H          -1.25892557568495   -2.61674751840882   -1.93090627337475
O           2.16147829270889    0.83328850460509   -0.55640451335101
H           2.92232779950885    1.36362474297946   -0.79978189870888
O          -2.15805397415272    1.84047430271446   -1.13837874031325
H          -1.72599957036330    1.96157496860027   -0.28378486631748
O           0.02922948441549    0.76084524205047   -2.42277328438527
H           0.74066316729804    0.89876666891689   -1.78125445869413
H          -0.25069300856523   -0.15862760568256   -2.32653893825752
H          -1.43648389464539    1.61731474320810   -1.75530868527264
O          -2.46930673571024   -0.59384183672255   -0.09050615226196
H          -1.90641201279722   -0.22092633883708    0.61329320349250
H          -2.68172944637670    0.21074037934475   -0.61577611201180
H          -1.50829962122088   -1.36723236455222   -0.99675941722163
N           1.30410873978942   -1.65205384069251    0.00255889762507
H           1.80654125683861   -0.81448438668874   -0.35439637697284
H           0.93936954014559   -1.37035416828925    0.98385338193353
H           0.47811940523999   -1.84202870377819   -0.62602067395927
H           1.91892994425400   -2.45635352753257    0.06294459483260
