    26
        -50.45568723  Gyration_radius:  2.56648344378 Dipole_moment: 1.975
 S           0.13697053879581    0.23121187725171    0.97552466040534
O           0.15876294411349    1.67114264493726    0.79707471631975
O          -0.99013520547146   -0.36976811452103    0.21844482485497
O           1.38661823245101   -0.39592403880185    0.58689462474220
O          -0.13854367082404   -0.04692146449096    2.46648984147281
O           0.09774261757527    0.99763785829993   -3.09824356543521
H           0.30210933933370    0.16042630629149   -3.51834345773248
O          -1.74508400071922    3.09433568888097   -0.21940555893393
H          -0.96659261723068    2.67537461471938    0.23190365296923
H          -2.39508489342238    3.26392232682345    0.46491372941080
O          -1.94667315834731    0.97748529816235   -1.60465051342055
H          -1.16996214569792    1.00924009673658   -2.28755969198664
H          -1.57858791804196    0.34592500608580   -0.81738493187413
H          -1.98205053075965    1.90179799732561   -1.16124061755698
O           1.95127092512218    1.35600499077176   -1.29853422917092
H           1.87439403074354    0.62590232037014   -0.64759505761280
H           0.84852061425262    1.18372630091158   -2.46498462688954
H           1.72702079133724    2.14101515975267   -0.78946294460477
O          -0.93232608412650   -2.42636581339943    2.01958619444061
H          -0.07299732815940   -2.87351871623637    1.80347014851492
H          -0.45470761887667   -1.00423137901646    2.47375702431976
H          -1.25920295101027   -2.06713676142538    1.18407925703380
N           1.53049775748878   -3.15831654333623    1.26185254150758
H           2.21191047132820   -3.34338077934011    1.98708869459747
H           1.65877646751806   -2.19080936685799    0.95997784502480
H           1.74735340262157   -3.75877551991925    0.47634743960439
