    26
        -50.46161850  Gyration_radius:  2.73533800714 Dipole_moment: 3.824
 S          -1.96864280772083    0.84541913703014   -1.33958334127847
O          -0.82164606905643    0.29488806695327   -2.02642162435976
O          -1.58996998212665    1.79974177010911   -0.29973441773425
O          -2.86344393441841   -0.17791589653361   -0.81887370367741
O          -2.79689434687945    1.66434252170987   -2.41410157994375
H          -3.52652378462132    1.99025349682738   -1.89666241054160
H          -2.26254277508983   -1.13345490642405    0.29886377608253
O           2.00339812606135    1.25807880194993    2.66207214069592
H           2.10148626451604    2.20288267824829    2.78908487776626
O           1.60633116874392   -0.44066929299693   -1.10197699699659
H           1.03380559184015    0.08775945964214   -1.68325212679642
O          -1.79474346249519   -1.68722738922941    0.98292919486292
H          -2.48431060172107   -2.10739144842489    1.49838391989008
O          -0.26345859327488   -2.30968622108484   -1.32019865155908
H          -0.76361612820412   -2.40830240020274   -0.49907370922609
H          -0.67075850533567   -1.55231641602265   -1.77391999581988
H           1.22001264909835   -1.34044734014889   -1.19249561008029
O           3.57505626923402    0.49763155188271    0.59485005670729
H           4.25069066723047   -0.17890513057387    0.65966911325844
H           2.97366126977897    0.21606631654658   -0.11613935513395
H           2.67699899887020    0.99934109919130    1.99804079618802
N           0.07535833107158    0.29654549016774    1.02418494888165
H           0.64257518057358    0.68443858837338    1.80640823626418
H          -0.51265720428727   -0.50163728614502    1.31154241105823
H          -0.56782953411103    1.01851720239608    0.58909208258190
H           0.72766322231932   -0.01795243324338    0.26731197890170
