    26
        -50.45966325  Gyration_radius:  2.59377858619 Dipole_moment: 3.959
 S           1.50919577505855    1.83868127232963    0.50494258789687
O           1.17614001303651    1.11442726388594    1.73053758673862
O           0.32164787228845    2.13216679723896   -0.26349303415347
O           2.56610946984893    1.18807403893856   -0.24599237532509
O           2.10801210981706    3.23809353075961    0.96705952712007
H           2.97077118653664    2.99170094884840    1.28561430336958
H           2.09329663417018   -0.23059740422647   -0.82316473790957
O          -1.29162576992699   -2.30362989271087    2.02923946352343
H          -2.05367959798509   -2.88042523853850    2.09664259296291
O           1.76726634218524   -1.05687216050432   -1.26416014748319
H           2.55166294447130   -1.53378501836479   -1.53969097957572
O          -2.04096885678475   -0.09189452707858   -1.11850309439823
H          -2.82153288608746    0.33375693273464   -1.47439037927702
O           0.00645504975213    0.71620619078611   -2.46650971921232
H           0.20371259024152    1.39967662583659   -1.79162624898132
H           0.67121257495312    0.02494296872910   -2.31830677171207
H          -1.27832625513710    0.21593696456714   -1.70155373012809
O          -0.52101314490018   -2.39010654265863   -0.48747803317234
H          -0.89603737624223   -2.47331820472352    1.13624502988753
H          -1.16453444977089   -1.76708700778282   -0.85200822092982
H           0.34865079302530   -2.00721737682973   -0.69600235753721
N          -1.26283616231432    0.31448870916406    1.46340048341515
H          -1.32254534549627   -0.66772921001831    1.83158806605038
H          -0.24724728298310    0.65255462751379    1.57273128169885
H          -1.51972707074123    0.30087026417804    0.44930296553240
H          -1.87405918701759    0.94108543792710    1.97557595159336
