    26
        -50.46161840  Gyration_radius:  2.73554199511 Dipole_moment: 3.823
 S           1.72400925441644    1.84244815865047   -0.14553333518862
O           1.80787999937514    1.14312322922987    1.13479479593711
O           0.35863789035664    2.10924102138454   -0.53921657378432
O           2.48766294752335    1.15394948340513   -1.17608802557537
O           2.42251544301128    3.24855822715200    0.06935118457237
H           3.30601761916099    2.99569378591450    0.31799549474824
H           1.98677274791432   -0.30197002524933   -1.56629079174757
O          -1.01100833640798   -2.35964746370368    2.46842972067804
H          -0.88165107568469   -2.17336301750728    3.39954026086940
O           1.59166291837764   -1.19865596219979   -1.74911962814143
H           2.28302130076105   -1.71014451383183   -2.17119382904565
O          -1.87777034512134    0.61631035904049   -0.28856876511836
H          -1.36537352001199    1.42625616526725   -0.12665290726458
O          -0.53763613049092    0.48138045764507   -2.57360388504739
H          -0.10357956655173    1.22389423661170   -2.12004925681663
H           0.11226625273196   -0.23389794076362   -2.56151177874462
H          -1.71611155721916    0.45612699647176   -1.24532579120173
O          -3.15139360654981   -0.95259041275219    1.59596997275233
H          -3.91559463166549   -1.35038410026250    1.17620249422044
H          -1.86160987612101   -1.93950110642323    2.22034224040089
H          -2.80715737056228   -0.29320755364914    0.96887855347963
N           0.23338500737494   -0.85958087090930    0.59065602903555
H           0.69642805641858   -1.30340659478609   -0.21810739490159
H          -0.63048037052784   -0.36854328081754    0.25921487378479
H          -0.03944197017494   -1.54334791462870    1.32691000478963
H           0.88854889965457   -0.10874137321859    0.95297634729388
