    26
        -50.45568726  Gyration_radius:  2.56647709395 Dipole_moment: 1.973
 S          -0.25735531886361    0.48186430046187    0.85197354826394
O          -1.03792487677207   -0.20726191707751   -0.20660136217517
O           0.87727354367417   -0.33403673881087    1.24297100872534
O           0.13651905485574    1.80732206313216    0.41178683095237
O          -1.20685931260660    0.65585108204181    2.05385854459092
O           1.64150937122308    0.07881706252263   -2.81137886043351
H           1.83004929373027   -0.85703598659103   -2.89981545796870
O          -0.79285215381950    3.04903161082193   -1.65646257863276
H          -0.39472611535999    2.70703746264483   -0.81397988220580
H          -1.62526068561302    3.45927551235560   -1.41490314089014
O          -0.80407251250583    0.65516186866295   -2.49901814509095
H           0.18024593871054    0.42695904544473   -2.72173854865283
H          -0.95487789621678    0.23925427757776   -1.51999412248644
H          -0.83680754531684    1.66599740959509   -2.32776643117749
O           2.55442056866329    0.76506493545835   -0.46645799614845
H           2.05322671540326    0.25542971800103    0.20565768628155
H           2.06158993076695    0.36907565321871   -1.95199023523747
H           2.29781204237969    1.67730100278216   -0.30008882158430
O          -2.19792372936906   -1.67619091268502    1.78703780524683
H          -1.44317103025514   -2.23805605080496    2.10305496772285
H          -1.68448264633447   -0.23032988096175    2.10803576083602
H          -2.04525991857251   -1.53795943249243    0.84282469324895
N           0.13861551381839   -2.79931675022534    2.46063613415246
H           0.58227992464010   -1.96942203973513    2.06301462829497
H           0.54759457094695   -3.61168139742788    2.01637819588882
H           0.38043727279241   -2.83215189785509    3.44296576847437
