    26
        -50.46161850  Gyration_radius:  2.73532289811 Dipole_moment: 3.824
 S           1.25660702586970    2.17783887101730    0.24887026015663
O           1.98420626896259    0.96260895319500   -0.04141519132501
O           0.28737593139425    2.00220254002171    1.32831104356226
O           0.63570465527150    2.76309984984949   -0.93053911864378
O           2.31690211237884    3.23345361814662    0.77102144566342
H           1.77270576666401    3.99668150497187    0.93691129437448
H          -0.48683451287652    1.89015819570882   -1.63854343788097
O          -2.47555827521220   -1.74560570499720    1.87262232624790
H          -2.55260505144275   -1.60848171109195    2.81797164254404
O          -1.16664806487396    1.26712015677604   -2.01693144535391
H          -1.74205810924062    1.80471125433773   -2.56249990189171
O           1.17473151886740   -1.61278226803420   -0.09516738571508
H           1.74458484521731   -0.89959408488638    0.23877119720362
O           1.19213267469078   -0.26309467294678   -2.37891017041865
H           0.33873853211778    0.15770152483806   -2.54853104122024
H           1.65550149411423    0.34153152054188   -1.77468052400307
H           1.19955005998359   -1.46063452098379   -1.06639516513022
O          -0.35407420987149   -3.35902574577579    1.40484681375873
H           0.30505861158541   -2.81534212974573    0.93966512916134
H          -1.78471648586291   -2.43071920388535    1.75040672300825
H          -0.40881240474859   -4.18601829851419    0.92372870091550
N          -1.00274363642492   -0.04642867122306    0.36670500564547
H          -1.36172264019492    0.30898450961006   -0.53344928395440
H          -1.73061556466206   -0.53418390988635    0.92922725492451
H          -0.22357041119595   -0.72075772347759    0.17852919368545
H          -0.57384012050451    0.77657614645191    0.87947463464390
