    26
        -50.45966329  Gyration_radius:  2.59372576338 Dipole_moment: 3.957
 S           0.98340487046750    2.20452671150130    0.29239176903956
O           1.34653063755780    1.45471060411455   -0.88779807035897
O           1.17742445162510    1.40649549001284    1.50196066550620
O          -0.33456118227212    2.80825040400672    0.23970022818342
O           2.00846925638399    3.41683274871630    0.39298575171590
H           1.60203024955863    3.96900805223609    1.05356143072514
H          -1.48519548365789    1.70248727180242    0.08868313340173
O          -0.19434956098803   -2.53767667030076    2.14792301431371
H          -0.26778263305293   -3.49292795560168    2.15340282353602
O           0.27127461553659   -1.63398678207282   -1.63763685995016
H           0.75899117812235   -2.01579169697938   -2.36805235597258
O          -2.18448318648634    1.02721195764087   -0.10743868384736
H          -3.02069865905091    1.44920436096971    0.09578477581757
O          -0.66297632052243    0.64984541027062   -2.39499875599908
H          -0.11103433457344   -0.77123184654454   -1.99233386546747
H          -1.40307107321074    0.81206984978994   -1.78866269867515
H           0.09802228798803    1.11612321120418   -1.98883844041205
O          -1.82157927715304   -1.68358124658131    0.26175351988109
H          -0.93002917573872   -2.20839489520306    1.57075956471091
H          -2.01102904258263   -0.72957601740895    0.24122248190324
H          -1.24807107425329   -1.84295716561601   -0.50037119877288
N           1.50049152676579   -1.03187763099361    0.72113134219997
H           1.36895584509973   -0.01355679119336    1.04270660672245
H           2.49019722413807   -1.25310936086905    0.72877673041972
H           0.96196388798438   -1.65375651747070    1.37466344783009
H           1.10710497232386   -1.14834147543815   -0.24127634644850
