    26
        -50.45147849  Gyration_radius:  2.46559878845 Dipole_moment: 6.114
 S           0.66492987311014   -2.23052253856836   -0.58792015133394
O           1.62859121470381   -3.26068616665875   -0.70576328967413
O           1.04451165422505   -0.93995961268318   -1.12396895963803
O           0.23881989110780   -2.02088049167372    0.89432712413355
O          -0.67268166474956   -2.65857721741060   -1.21113948477055
H          -1.31576242384837   -1.93421230998402   -0.94566026634071
H           0.80790235442258   -1.33673341903301    1.36628533759086
O          -2.25216140284350   -0.79030802046714   -0.41427064483336
H          -2.99652844673372   -1.22642864433139    0.00397245002199
O           1.62152297080290   -0.22292616776151    2.09362206382508
H           2.43507631882290   -0.59171102969776    2.44215455960539
O          -0.01531729290879    2.69093391251677   -0.58317753512070
H           0.11050676548170    3.51626773671409   -1.05286288509379
O           2.20205005400596    1.20921262490431    0.02902021911761
H           1.99189736999981    0.47225077081075   -0.56956376821148
H           1.48724744785378    1.85944763254663   -0.11828105310564
H           1.89203688441541    0.40724626900545    1.35364181967822
O          -0.73685993786161    0.75102445132675   -2.22767374929546
H          -0.02546651644769    0.12718789743728   -1.99004402915909
H          -1.54304013288066    0.34811284905741   -1.88501949134244
H          -0.31650902765923    2.02914935917918   -1.25935172301395
N          -1.22723101257159    0.81699559359824    1.38126071002949
H          -1.88924909863617    1.18314551769000    2.05387629716955
H          -0.45989331005436    0.39880479290620    1.89458685951475
H          -1.82376161652598   -0.20065666920091    0.30286238091238
H          -0.85063089523168    1.60382289977707    0.85908720933228
