    26
        -50.45553726  Gyration_radius:  2.4176144149 Dipole_moment: 9.607
 S           1.06630989864512   -1.47817266664493    1.32865826397634
O           1.37004675373345   -2.02961988301228    2.60820960012001
O           2.18321808056266   -0.84386161747739    0.63927022738504
O           0.02802819163396   -0.25596244202862    1.60761774593631
O           0.27885201650892   -2.33345808811519    0.44172981763330
H          -1.26465996008049   -1.97881929496224    0.55018738061301
H           0.46450183302303    0.25314142181101    2.28319465736359
O          -2.17982183713619   -1.60702008946932    0.67332506095043
H          -2.30645604526824   -1.58844980810466    1.62406895036613
O           0.07850451890233    0.56053532171859   -2.30397369501686
H          -0.04859673009188    0.59629569205045   -3.25255553956597
O          -0.45235439708704    2.54473976743102    1.12280985792882
H          -0.45915440553445    3.49330619891786    0.98738968086085
O           1.63629759158661    1.61527713701184   -0.14260712051978
H           1.92792930905854    0.74205692740808    0.20489623109238
H           1.27261935241716    1.42776299986081   -1.01802447312905
H           0.41110948747075    2.21815057779628    0.74547646046698
O           1.41427116975504   -1.56904616170721   -1.77309468840209
H           0.84337346934896   -2.08395991629430   -1.16760749343912
H           0.59389501901616   -0.29384728560793   -2.13009892311609
H           2.08911862824354   -1.25143674832788   -1.14715005694969
N          -1.80677044508972    0.78192809218939   -0.38237417194075
H          -1.12994571739102    0.66200388510401   -1.17294985805380
H          -2.69216744384184    1.14414040123524   -0.72059231199859
H          -1.95128420915206   -0.16967545761723    0.08651727267507
H          -1.36686412923494    1.44399103683458    0.30767714476427
