    26
        -50.45553746  Gyration_radius:  2.41764279092 Dipole_moment: 9.599
 S           0.09132971567798    2.13970851224766    0.70666530051803
O          -0.52101339537464    3.32830224760217    1.20265077671763
O           0.67848227293181    2.24551777993191   -0.62332610444259
O          -1.11591288573364    1.06346903043188    0.52152001234183
O           0.96572177526173    1.43888783641619    1.64632842830114
H           0.17210460686903    0.28197277143810    2.38973007208942
H          -1.76283047120974    1.54531583259254    0.01615638595894
O          -0.42871337504969   -0.43816114710280    2.72328437455071
H          -1.22550566140116    0.02030900022822    2.99771556280923
O           1.53821337259714   -1.52395526502538   -0.96738430082133
H           2.21930759572942   -2.17974892012284   -1.11982090325414
O          -2.35899327673928   -0.74102212150842   -1.35295084030726
H          -2.74750694076662   -1.22842501223440   -2.08071716990911
O          -0.17638318309328    0.36752950218153   -2.26709720055655
H           0.48350021252098   -0.31514814423711   -2.08726414537855
H          -1.60127410378562   -0.22199527471815   -1.74148769307760
H           0.10524419869603    1.14248953587370   -1.73022537496183
O           2.68646801054641    0.61420688032573   -0.12445673244889
H           2.28396575592328    0.79039061792459    0.75017574016678
H           2.02248972839536   -0.70295151723363   -0.62470373985573
H           2.26306249785156    1.31244363962042   -0.65443345070432
N          -0.72040680088218   -1.80737749286519    0.48672633229743
H           0.19061795455209   -1.74698842212684   -0.02694242473895
H          -0.94371777687318   -2.77213178327111    0.70790684260393
H          -0.64121363684453   -1.23082278474464    1.38525886669863
H          -1.45703618979658   -1.38181528162114   -0.13330864459388
