    26
        -50.45147871  Gyration_radius:  2.46526631319 Dipole_moment: 6.104
 S          -1.61581974841366    1.27736153905240   -1.23029920027612
O          -2.11535713487242    1.84454472692176   -2.42717584945239
O          -0.21451818621603    1.51279601320427   -0.95130533002709
O          -1.85504716647745   -0.26005043273399   -1.18956870126824
O          -2.45036727048863    1.72742033330084   -0.02125577016383
H          -2.11655502372354    1.16058305405397    0.73758496062104
H          -1.08803291320553   -0.78036576687788   -1.58431147924695
O           0.12164100711077   -1.60905388180110   -2.11351629746993
H           0.07111849332378   -1.68242483118116   -3.06820650191349
O          -1.57425422933419    0.17374521408031    1.83359071691483
H          -2.34475231277469   -0.24680326140274    2.21921859443442
O           2.49648776901958   -0.17064600125649    1.14878282343471
H           3.36560962137667    0.07699494592633    1.46649314019434
O           1.99151218278695    0.06827261860043   -1.52986462528630
H           2.30005200773638   -0.10243017762268   -0.61822287923091
H           0.92239463667348   -1.02740934584865   -1.91754408670906
H           1.34693265500398    0.79084547597592   -1.44031359282089
O           0.73998365316869    1.76294341218734    1.55377933925479
H           0.43893863454345    1.84098656589477    0.62915978987282
H          -0.01351478653581    1.39346609647048    2.02856147876700
H           1.89375772011491    0.58727383815399    1.36821409693093
N          -0.01383989511459   -1.75673118333006    0.99796830243979
H           0.93399905811042   -1.40159002126832    1.09315297613439
H          -0.15537850942639   -1.98482846422731    0.02067422527897
H          -0.07502825895343   -2.61550906085363    1.53044012326735
H          -0.98996201342964   -0.57939139541838    1.46396374631266
