    26
        -50.45553730  Gyration_radius:  2.41759420948 Dipole_moment: 9.606
 S           1.03904790483453   -1.51319175608935    1.31078862839360
O           2.19574388307587   -2.24120333443819    1.71785029842595
O          -0.03345960397429   -2.31373767413403    0.73292384782525
O           1.52492662890643   -0.55901987801369    0.08464808186954
O           0.54226916216910   -0.52680637935092    2.26922352240274
H           1.11535081785493    0.91515752327444    1.93319196090747
H           1.97212545047040   -1.16325045777973   -0.49931207877958
O           1.49532549791510    1.75930418878036    1.56733097722181
H           2.42932977027160    1.57320352772169    1.45190707014560
O           0.96565726286254    0.19590609291963   -2.64065871477355
H           0.75092950192017    0.29522148112996   -3.56918599131352
O          -2.24446643138710    0.69899545600424   -0.31694563283285
H          -3.09840138308385    1.12748581867161   -0.25047652312708
O          -0.81946262256731   -1.41707202483058   -1.62070888368208
H           0.35974221484858   -0.51509926201957   -2.29164095480322
H          -0.50643721225663   -1.85024158348172   -0.79466109780637
H          -1.50611514169861   -0.79980397118296   -1.33556881911294
O          -1.98307291525627   -0.84427191732990    1.72034453627198
H          -1.17953729491173   -0.52655618698253    2.17964746404145
H          -2.16971062891113    0.11160912194389    0.50492039569006
H          -1.64366929663490   -1.66776844795998    1.32679839864937
N           0.15792962324862    1.87111026645950   -0.70448640179526
H          -0.79555533526153    1.48084341921489   -0.51459767379918
H           0.09528660515813    2.83579942705086   -1.01269656711227
H           0.73501339431697    1.80680258253686    0.19485312762204
H           0.60121015808472    1.26658395789381   -1.44348898053754
