    26
        -50.45147871  Gyration_radius:  2.46526869491 Dipole_moment: 6.103
 S           0.74158158733868    0.38205493775877    2.24949850841809
O           1.47328504164413    0.12108985263679    1.02742048670067
O           1.36667308305033   -0.03429065436357    3.44942384171196
O          -0.67262358192516   -0.25015886556962    2.09902974286980
O           0.38123404381658    1.87447542142142    2.30914766775401
H          -0.18270744863871    2.02776229252646    1.49233797359663
H          -0.65121620040428   -1.13153616306072    1.61170585080792
O          -0.65272134402794   -2.45457827000484    0.78700445886277
H          -0.44301474051539   -3.19392725860494    1.36038112580880
O           0.60504490633493   -0.26443986625814   -2.67356710458630
H           1.09985256277262   -0.26666840339641   -3.49376917443756
O          -1.11259682187836    2.13975032728498    0.23090463295857
H          -1.92599371026464    2.54650422706471    0.53449235750122
O           1.33479947778796    1.74378310082803   -1.11690782499383
H           1.55196267755133    1.20798766073997   -0.33111839826764
H           0.91040603183406    0.53268848570486   -2.16643168726597
H           0.54483952906716    2.23756961037772   -0.86852400035025
O           1.40726134578588   -1.96464295804382   -0.68509077398248
H           1.11924070579523   -1.48795660366705   -1.48832375742518
H           1.70416352171660   -1.26601617386975   -0.07726809034825
H           0.13078280659641   -2.35374231770055    0.15944083038010
N          -1.79361086542319   -0.11051975840769   -0.92365922547116
H          -1.10546921612571   -0.26017696232712   -1.65689138646456
H          -1.74720912587324   -0.90607480690988   -0.29746113965006
H          -1.37541226272346    1.23897671467463   -0.17494150643160
H          -2.70855199330219   -0.10791359882879   -1.35683340769976
