    26
        -50.45553746  Gyration_radius:  2.41760607855 Dipole_moment: 9.599
 S           0.82617046346082    1.80148117599675    1.07575934718241
O          -0.01638909704184    2.42606351367357    0.06347299585218
O           1.91094800701441    2.59836424438343    1.54676048887993
O           1.50566084863104    0.54068518019783    0.30218087553704
O           0.04423552551942    1.12308829490274    2.10868277124424
H           0.56519261667256   -0.36203026529653    2.31703242212343
H           2.12154652291881    0.95513476714103   -0.29362488272630
O           0.95237816165095   -1.27870223768683    2.29100497702421
H           1.89954647593005   -1.14222083189668    2.35836751406350
O          -2.15994951269327   -0.72916167597399   -0.65613830649453
H          -3.03736652238948   -1.11174360891196   -0.68801149487129
O           1.52856487673721   -0.93048818850968   -2.17731228713177
H           1.52580633710013   -1.27929201872231   -3.06978430917119
O          -0.30874029645613    0.92543864146894   -2.08620350234232
H           0.91743069821945   -0.14248871798406   -2.18689045167425
H          -1.08963254516917    0.42022036613450   -1.82403061232767
H          -0.16077462014605    1.56526344087176   -1.35342287620888
O          -2.25345649814974    1.31336724670765    0.89972946465788
H          -2.23016860351144    0.06128905425276   -0.02673589456066
H          -1.60178492456996    1.12471795794781    1.60519420616716
H          -1.77223365866913    1.99334384460494    0.39596068496970
N           0.16614889407621   -1.99487642311860   -0.12347937492718
H           0.52475225080601   -1.69295994031259    0.83910887775315
H          -0.77115677127731   -1.55427521249290   -0.28093996448266
H           0.81411650137831   -1.62402528965956   -0.86553414574152
H           0.09915488995534   -3.00619333771258   -0.17114652279350
