    26
        -50.45966324  Gyration_radius:  2.59396710034 Dipole_moment: 3.960
 S           0.17319241838867   -2.21018944330468    1.00106257621113
O           0.00868805000315   -1.07991140066672    1.88548110819738
O           1.28273187229990   -1.99442354342355    0.07368008742844
O          -1.03906977547215   -2.62166992742992    0.31880406802633
O           0.59318021486342   -3.44354903493212    1.91384736707333
H           0.49087136741645   -4.17866654432948    1.31753977471957
H          -1.61805862927544   -1.45361292121411   -0.61364464410872
O          -0.20411783110242    2.12866298583947    0.92346766846259
H          -0.13695477191576    2.73095738671577    1.66498665231229
O           1.93561878903155    1.44921563975456   -2.28859129722781
H           2.20129494887990    2.32141538452618   -2.58276121263936
O          -2.02939185716335   -0.69832757336436   -1.10748490609119
H          -2.67515132677061   -1.09124718255987   -1.69674707043993
O          -2.09434645173196    0.44246252885385    1.41882575414998
H          -2.34834653147436    0.11297053573289    0.54207594931097
H          -1.44669821634021   -0.21360443679122    1.75284514297725
H          -0.97976550580328    1.52209481772744    1.13991380819736
O          -0.65091843843596    1.58593074069455   -1.81400414833457
H          -0.61076432506586    1.99038252641282   -0.93650570636997
H           0.94427606303259    1.45059067628413   -2.28287557049529
H          -1.11911445097466    0.74322730903841   -1.68350020745331
N           1.87705303283119    0.51246158986154    0.22035754769892
H           2.69298361207944    0.62447160108641    0.81216202532790
H           1.06576391461539    1.04472249115776    0.61153138816476
H           2.05855472853580    0.85859954724744   -0.75489366377712
H           1.62848911955277   -0.53296377291806    0.16442752867961
