    26
        -50.45147872  Gyration_radius:  2.46527045797 Dipole_moment: 6.103
 S          -0.22216682959103    1.70787201032115    1.67018584154337
O           0.89889288124686    0.87269803312899    1.29251821296997
O          -0.24405338644813    2.14838271690557    3.01522467415942
O          -1.52723443533415    0.94290130078225    1.30380816766006
O          -0.30895664737761    2.89844207324079    0.70278587403665
H          -0.43960784178905    2.47774343688160   -0.19978169900550
H          -1.45577676062801   -0.04696760959974    1.47685079063535
O          -1.33937216389221   -1.59096761096334    1.65743041164927
H          -1.52310233148613   -1.82507047726315    2.56891349139648
O           1.61986035410441   -1.69978785085712   -1.43877041915161
H           2.40572555717467   -2.12061036767953   -1.78938626583353
O          -0.71523680618612    1.72070767249070   -1.54869006490370
H          -1.49593562777010    2.12752122114840   -1.92849306869946
O           1.19973245298577   -1.80995247883137    1.26297936259133
H           1.32903860299628   -0.85863307805168    1.41740011503315
H          -0.35994268177074   -1.78241839884724    1.50922733555777
H           1.36501895967436   -1.93011273555070    0.30714424400284
O           1.96187350656160    0.90889745348454   -1.18092920520738
H           1.73073652945689    0.96282224951218   -0.23468130618883
H           1.81622857246146   -0.72707509067404   -1.40642163111537
H           1.23973897721999    1.35588717406490   -1.63737840599315
N          -1.22599785361941   -0.84182767857023   -1.36740927855544
H          -0.33029146776639   -1.30755049180246   -1.48740624326189
H          -1.58783410263486   -1.10993503823706   -0.45947058330383
H          -0.93494318216617    0.72901625515900   -1.43279753200993
H          -1.85639425552111   -1.20198271015021   -2.07285279801493
