    26
        -50.45442006  Gyration_radius:  2.45713958169 Dipole_moment: 5.532
 S           0.73692759723481    2.19728014485514    0.52146639511282
O           1.07749948661872    1.62427275280308   -0.76837819096522
O           0.80029639939330    3.61724229752187    0.62484082516164
O           1.83072913638723    1.63836622103605    1.55305925674421
O          -0.53104787061574    1.61236623531852    1.00268848755499
H          -0.37059273966204    0.19682786450736    1.81343627359293
H           2.10469490772189    2.46655553053399    1.93017678441111
O          -0.37768738052639   -0.70889733669155    2.20585310108949
H          -0.73509087726771   -0.61383892494391    3.08977646269264
O           0.03822241987727   -2.05729305748843   -1.61381458857979
H           0.41656462959008   -2.80167832488524   -2.08133218706390
O          -2.23337493229566    0.66645589737503   -0.60449826926113
H          -1.62759448431998    1.15688612533727    0.05863670361920
O          -0.58033364576005    0.45199538783117   -2.45440416794166
H           0.12356789990783    0.96171857220455   -1.99343414409332
H          -0.33488573357327   -0.49027036061729   -2.35119121714804
H          -1.64064231971700    0.61938688135663   -1.49303363287569
O          -1.91990605984821   -1.68578387427746    0.22307961795642
H          -1.37158354258658   -1.49435690075978    1.01463406578155
H          -2.24585860557466   -0.32912115658232   -0.25523684038755
H          -1.29832915196304   -2.00630723538325   -0.45962583215912
N           1.71479683225791   -0.99693884788734    0.07181519887276
H           0.74882655131676   -1.70820234030788   -0.97445931145443
H           1.63665246897642   -0.01247423440787   -0.18607316204913
H           1.33799027823128   -1.08185392472651    1.00994446448167
H           2.70015875622761   -1.22233741174928    0.11607390692333
