    26
        -50.45147869  Gyration_radius:  2.46536743419 Dipole_moment: 6.106
 S           1.22960738895873    0.47426864223096    2.00522533602335
O           1.57744409889983    0.61794513335760    0.60693476943068
O           2.30818996687967    0.25287105971341    2.89480561655107
O           0.16461983788639   -0.65555621909649    2.11464635141668
O           0.39982243519443    1.69108226895529    2.44314371468873
H          -0.40941825547875    1.66878526443818    1.84873755497430
H           0.34199830011970   -1.41557976397571    1.47776948283930
O           0.54909565618925   -2.56348829340963    0.44322174634553
H           1.17799027686494   -3.20017943736479    0.78742563007455
O          -0.22233732867103    0.20067859072323   -2.73719590029315
H          -0.04747852964342    0.45766524906841   -3.64328800006929
O          -1.66643056136008    1.49760646500844    0.92192703341864
H          -2.43053286468759    1.52464004951603    1.50040331314423
O           0.19942445169358    2.20963658222197   -1.07147616889875
H           0.83015420944997    1.74646651749060   -0.48893089872964
H          -0.07624259256541    1.01263991129092   -2.18470798115333
H          -0.59200398618726    2.32823436417054   -0.53374102507358
O           1.71877217035933   -1.18592402462280   -1.39668219138586
H           1.00297713322616   -2.11253662735174   -0.33682667958358
H           1.04111270082463   -0.80369207265727   -1.98835398249063
H           1.92408027264442   -0.47502963251878   -0.76576893545830
N          -1.83016858514738   -0.74429853955725   -0.42187634374391
H          -1.40396799257631   -0.55263929577820   -1.32476009426650
H          -1.70588945713350    0.59963854961243    0.43449907630895
H          -2.77275820219498   -1.07265578628711   -0.59058465040149
H          -1.30806052355682   -1.50057891517447    0.00545321635868
