    26
        -50.46172238  Gyration_radius:  2.51990666476 Dipole_moment: 6.739
 S           0.35678205341378    0.68929694289496    2.10963542331396
O           0.97601492483821    1.17173137514516    0.85653563542613
O           1.32247960880161    0.34188130302104    3.10448300303107
O          -0.57385174916020   -0.39736645528142    1.80466465717509
O          -0.50651932442444    1.90026224678418    2.63254523748184
H          -1.05155242037604    2.18119700809805    1.89672789776733
H           0.46928645890271   -1.82094523728460    1.98892239263234
O           1.39295472051627   -2.13717820905366    1.95834651713837
H           1.82539831042156   -1.53946259538677    2.58605474223931
O          -0.51402581171108   -1.36979834492280   -1.94176967987940
H          -0.85032604440180   -2.23388092095068   -2.18234204490269
O          -1.07297551149968    2.16511180614849   -0.49314180451646
H          -0.83564833839146    2.11515238555389   -1.43489048293473
O          -0.39616332521368    1.22657478143096   -3.02464821804590
H          -0.38230024202434    0.29035881182438   -2.77088913975442
H          -1.06995559253613    1.31920492646282   -3.69996255349474
H          -0.24979142912128    1.91361719134196   -0.02944501692678
O          -2.14414659600549   -0.28190002087024   -0.30313471176257
H          -1.70140596935828   -0.44989072583101    0.55532794098419
H          -1.99121855195159    0.67782887644894   -0.44755006366087
H          -1.20317726325510   -0.97176219653414   -1.30217890083630
N           1.66069137422088   -0.97464229818274   -0.39872488121382
H           0.87276407576220   -1.21970124608045   -1.04587707858465
H           1.44674432079963   -0.01246898508931    0.02113443676907
H           1.67007070516027   -1.61433885633993    0.44692799525548
H           2.54987161637029   -0.96888155335052   -0.88675129302256
