    26
        -50.45442011  Gyration_radius:  2.45706729792 Dipole_moment: 5.532
 S           0.33730719647282    1.73228450327660    1.58989689720206
O           0.09610804701747    2.74932691484825    2.55861294762123
O           0.23645535336300    0.35935896785967    2.05115744709232
O           1.85997548330853    1.92884394566331    1.12494451253332
O          -0.43454146383271    1.89211188974814    0.34087020374567
H           0.38265429910188    1.50463649894095   -1.02616143364631
H           2.05920711292956    2.71378607425312    1.62232105430337
O           0.75668116097761    1.18286510248387   -1.88110877091190
H           0.78897902577376    1.94440996728546   -2.46176879348788
O          -2.37040128192631    0.36792701530652   -0.21090573528761
H          -1.68044378096557    1.07967275451393    0.04321590588500
O          -0.14559164914186   -2.55438535596341   -0.53986888150752
H           0.17009914379091   -3.45287647076772   -0.63435760188468
O          -1.63921009707749   -1.38093784987044    1.40383036086148
H          -0.95194626980994   -0.81839889107670    1.82691138519251
H          -2.20927416146439   -0.40229605074453    0.51279824667560
H          -1.15528731805775   -1.97759627136411    0.79674877974568
O          -1.18737506314644   -0.66057542879776   -2.17524604571681
H          -1.99740198857005   -0.04485455647325   -1.10749583051159
H          -0.42285298015565   -0.04689460906365   -2.22782463721563
H          -0.84953284591446   -1.46972392858736   -1.74360955741967
N           1.77267022462085   -0.89175656865227    0.03668861303137
H           0.66017241583694   -1.97126095088724   -0.32469566144808
H           1.36141071148468   -0.40605196011530    0.83464026591373
H           2.70956502734928   -1.16904050838387    0.29949286412700
H           1.85257368803372   -0.20857422342976   -0.70908652489155
