    26
        -50.45442016  Gyration_radius:  2.45708275743 Dipole_moment: 5.533
 S          -2.34565045513385    0.23822035781337   -0.28953734608206
O          -1.83060388680913   -0.17330826284728    1.00400378516846
O          -3.66070837319604    0.78695078036504   -0.30642089552110
O          -2.42088054298875   -1.09560077394430   -1.17731317093037
O          -1.33710005262234    1.06505903949186   -0.98291441170705
H          -0.22287343411301    0.21708320157689   -1.83437200136115
H          -3.32256613383300   -1.02070774597677   -1.46825777605501
O           0.41374403474635    2.35270840161767    0.30261761363023
H          -0.35773856836747    1.95152089953318   -0.23674095185299
O           2.01375147086452   -0.75005653700816    1.49024032892129
H           2.57566831603792   -1.35998490088829    1.96781078882042
O           0.55055599530850   -0.21359599860439   -2.27115627360457
H           0.51770132329622    0.04934771066251   -3.19201869459836
O           0.11277952597771    0.98598624058604    2.36235860179995
H           0.30416426756401    1.90045980463770    1.26502993160092
H          -0.69479243170728    0.52728208687641    2.03806725378703
H           0.84456957334297    0.34581128728831    2.24714696826871
O           2.30335346573271    0.95915082147718   -0.59325269251842
H           1.81052711642865    0.46487529994813   -1.28375955787362
H           1.27530065275820    1.89243642067360   -0.09707567973743
H           2.40451826714496    0.33939945121168    0.15566989273931
N           0.16261210701465   -1.97439736285381    0.12961765025554
H          -0.05692535269408   -2.95794181691739    0.21995672558183
H           1.32779753033731   -1.30421504633716    0.98236111993887
H           0.29335698105364   -1.77832946301329   -0.85716478447124
H          -0.66056139614806   -1.44815387536756    0.42510358580021
