    26
        -50.45442008  Gyration_radius:  2.45707903957 Dipole_moment: 5.543
 S           0.64607462580185    2.01962242173823    1.07142784285794
O           0.85945992130463    0.75611038754473    1.75387530494532
O           1.41963877651514    3.12747878081004    1.52432533875924
O          -0.88317371533882    2.41626410178718    1.34927973738301
O           0.69371073456912    1.80647164543873   -0.38943060262151
H          -0.72933294401051    1.34444221166781   -1.05794787271698
H          -0.74354874692354    3.30058819743480    1.66811935551950
O          -1.50825635289127    0.95334093559766   -1.52150087764924
H          -1.77456101077543    1.59385039557356   -2.18260003915904
O           1.96031812257475   -0.13384390073769   -1.39241384385894
H           1.55087086391911    0.73038901195633   -1.02795754849300
O          -0.34447015380390   -2.59056632859125    0.10803184878183
H          -0.73551230026532   -3.41508967136993    0.39609153613996
O           2.01192127580088   -1.39764435239791    0.75308030535120
H           2.12769704603713   -0.71844928003484   -0.51376542154371
H           1.67763461231291   -0.64857163274923    1.29597273546563
H           1.24380941639518   -1.98937882820825    0.61790505022690
O          -0.12784959872183   -1.24833440622073   -2.23599616291888
H           1.15451176614056   -0.61982025288378   -1.87065006007539
H          -0.26270394315988   -1.88890087320010   -1.51009152465529
H          -0.76416588917638   -0.51931150422256   -2.07043416130193
N          -1.57404491626595   -0.51859399890732    1.09368916778558
H          -2.26768839421660   -0.56138303753906    1.82903847018326
H          -0.77998829949722    0.01343211556600    1.45181030498640
H          -0.88342387040647   -1.83650009126920    0.52810983605369
H          -1.96692700591475    0.02439796322304    0.33203127055998
