    26
        -50.45441995  Gyration_radius:  2.45703351326 Dipole_moment: 5.544
 S           0.81517171205561    2.06190535691629    0.85258250932937
O           1.11771295717070    1.69463079486001   -0.51915582832701
O           0.92702502176015    3.44394303715827    1.18176187841148
O           1.90490988753308    1.31093263587107    1.75913247985826
O          -0.46402881010682    1.44549206419002    1.25870337017162
H          -0.33548653220841   -0.08626438258452    1.82717171251677
H           2.21450825078329    2.05943106045681    2.25625977028876
O          -0.36435519374902   -1.04288444615977    2.06900884598515
H          -0.69771680958575   -1.08146592103966    2.96659624479124
O          -0.05459643977138   -1.77103038709176   -1.92288333570747
H           0.28857087772247   -2.44695332660872   -2.50691065689881
O          -2.22092078611258    0.82091253925041   -0.44400692991552
H          -1.58965696928504    1.18031651059918    0.27668202182870
O          -0.60350594012376    0.85896761177489   -2.33718249268709
H          -0.38700803261130   -0.09421117446295   -2.39257894637760
H          -1.64369366280167    0.90015446313969   -1.34019583683751
H           0.12352572808331    1.26637468661474   -1.81441470669441
O          -1.97048445268567   -1.64165841349817   -0.01109066448594
H          -2.25987306264697   -0.21751687072873   -0.25856720088581
H          -1.36951619692986   -1.86537803317441   -0.74884916075228
H          -1.40436773275430   -1.59660148277038    0.78966468336039
N           1.68326365033012   -1.04552893488550   -0.12566885696386
H           0.67761178199942   -1.55029719866242   -1.25160281192259
H           1.63342432453495   -0.03047318949125   -0.22089012396932
H           1.31810804573222   -1.26859282068076    0.79428589516454
H           2.66137839366471   -1.30420416899542   -0.13785186928046
