    26
        -50.46111932  Gyration_radius:  2.71310634811 Dipole_moment: 3.932
 S           0.11611980832980    2.46199917841829   -0.03871524763383
O          -0.07734960430632    1.90180459945612    1.29606757533005
O          -0.72458617200719    1.82939991558457   -1.03199846950254
O           1.52291449605517    2.47154411441649   -0.41067864226886
O          -0.34180840078102    3.97570082702967    0.04671443980012
H           0.22368533410867    4.31214653082097    0.73436927543533
H           2.27433254920680    1.07421999940281   -0.49073855672017
O          -1.39944934170586   -0.73575675300325   -1.18757206775449
H          -1.49079522153047    0.23513631081692   -1.10614196555825
O           2.65531916581352    0.15405009716257   -0.52556351138757
H           3.60394052743760    0.25886886737673   -0.44300397116390
O          -0.47602735916493   -2.67014925136981    2.34273025238920
H          -0.20286254486171   -3.58816851332316    2.35279388878880
O           0.72207315832260    0.04964151995837   -2.62180602588046
H          -0.78556566920282   -0.82211318101082   -1.94252319561005
H           0.34022223309814    0.88384170330750   -2.30586211845846
H           1.55262414450809   -0.04838362867587   -2.13934442858519
O          -2.59541282042829   -2.37021989835027    0.69119456471301
H          -3.35473936148812   -1.87808455990730    1.00762327095383
H          -2.26620894960737   -1.88946806203457   -0.08744170145239
H          -1.31451325909908   -2.63673104547474    1.83431860167320
N           0.41756917044817   -0.61191482138511    0.82023684348032
H          -0.25929901340071   -0.78810376166607    0.03904274682225
H           1.37763792672438   -0.59026159995758    0.44043170434465
H           0.20172138121118    0.36157143782829    1.17913733556224
H           0.28045783236664   -1.34057002525573    1.54672939263792
