    26
        -50.46111930  Gyration_radius:  2.71333448706 Dipole_moment: 3.932
 S           2.21308606927705   -0.72397728036306   -0.81083425557622
O           1.12440608682852   -0.74920512199939   -1.76358129648226
O           1.84086863978811   -1.29989888802824    0.47864739256551
O           2.79566875354998    0.59992450513190   -0.65167190365594
O           3.35228752733837   -1.65445707334584   -1.39798320169080
H           4.00896391237316   -1.61685609656891   -0.71006988088216
H           1.89075957033396    1.72984468015361    0.00249169281650
O          -2.19927680045530   -0.54827477620007    2.77599541111610
H          -2.88183731564788   -0.01477196294161    3.18468460977138
O           1.24660673023581    2.37207039082733    0.40957841584914
H           1.77744060108800    3.07994865515137    0.77674468760513
O          -1.46020164213076   -0.36276251503201   -1.28332493077692
H          -0.63433440620018   -0.80509449618130   -1.56591310509583
O          -0.03928351229640    1.76901103154206   -2.06518352887274
H          -1.37761551452801    0.51526201016804   -1.70348039022631
H           0.32230601512690    2.26692808056975   -1.32119603931063
H           0.57233160116163    1.02742090460266   -2.19749114346011
O          -3.14595266367604   -1.64262520924295    0.49210577406985
H          -2.69504271208529   -1.18210024661537   -0.23621856213978
H          -3.00625564118792   -2.57919766327804    0.34312884029794
H          -2.62635545839014   -1.01803745673708    2.02788903191468
N          -0.22294805551634    0.17808648024494    1.06721280359296
H          -0.80341888232000    0.03574420493620    0.20564725708464
H           0.59247313307644   -0.49365841322047    0.98399903348637
H           0.16813008404823    1.13384371724572    1.06006362370498
H          -0.81280611980347   -0.01716746080989    1.89875966428965
