    26
        -50.46111925  Gyration_radius:  2.71330092632 Dipole_moment: 3.932
 S          -0.77411406330926   -0.38191232421818    2.30951108814163
O          -0.41401018302245   -1.60587745310314    1.59870780460649
O          -1.55872024706627    0.52086063601104    1.49534515693076
O           0.39614434407758    0.25512757810539    2.89435580313398
O          -1.69970379579579   -0.82714975808401    3.51501271051213
H          -1.13649839743650   -1.43868032154293    3.97831897953900
H           1.54614218312173    0.73303747105883    1.90789184184990
O           2.20527571297543    1.00796813345157    1.21294540115640
H           3.04364877709179    1.09961375837544    1.66728327638133
O           1.10483009675436   -1.87218227852578   -2.84910968920536
H           1.67839916590843   -1.66290476953075   -3.58717550704519
O          -1.30140278823071    0.99655993435945   -1.10591066571199
H          -1.70549364661339    0.72556890932304   -0.25685377056893
O          -0.02828278711969    2.66037375863662    0.56331278407711
H          -0.90837469362383    1.86183387680047   -0.88000907215068
H          -0.58705570344230    2.13024793154910    1.15343572145181
H           0.87634523495659    2.37881573802223    0.74924859159703
O          -1.32595843170630   -0.75561599523145   -3.24157023616247
H           0.20978375220312   -1.55476476664847   -3.09577485695002
H          -2.10435738706439   -1.30031301079888   -3.11339105707491
H          -1.39633578762761   -0.02733512426492   -2.60085271877823
N           0.79869461654788   -0.59722498872927   -0.47546729931531
H           0.35131307581600   -1.16078884610126    0.30249625786099
H           1.56017763144259   -0.04356709391461   -0.05114364967028
H           1.11562277747581   -1.19362643817195   -1.26372694278666
H           0.05393055362835    0.05193542318580   -0.82687994183743
