    26
        -50.46111935  Gyration_radius:  2.71280701977 Dipole_moment: 3.933
 S           0.94759467416407    1.81482670671096   -1.37152081309707
O          -0.33721839775896    1.28804260020331   -1.77816797222677
O           1.90525370242271    0.76193296178511   -1.04393077053272
O           0.84498510890676    2.79081929308752   -0.29713526673186
O           1.54256821746937    2.57879127142787   -2.62476215739413
H           2.39064144343971    2.86050609379159   -2.29727114594948
H           0.34842505583613    2.27742630252119    1.12194816201139
O           0.99846386050254   -3.11411103390589    1.46604062412723
H           0.69208022525977   -3.60576937085979    2.22891448581445
O           0.01892886884525    1.86589114149756    1.96758057956809
H           0.29043504895603    2.45691645489668    2.67090493170344
O          -1.59362741787867   -0.84435658306762   -0.81150089874744
H          -1.15471165497053   -0.24816290163347   -1.45141880087268
O          -0.72529045451542   -3.45735587204246   -0.58847788944740
H          -0.36856335605969   -3.67916032513140   -1.45011959866604
H           0.41454210980648   -3.36953395467327    0.72000801817945
H          -1.18931084031052   -2.60955767080311   -0.69702974779705
O          -2.23664851067155    1.52823192923242    0.25203697044060
H          -1.68627821766172    1.76373467741795   -0.51159868683051
H          -2.21007758517660   -0.23883962278206   -0.35577871649538
H          -1.70232791864468    1.74426039712443    1.02663693468024
N           0.57096510128360   -0.52365427085670    0.78841909645930
H          -0.31646874223013   -0.72087023515389    0.26586543978971
H           1.24161701339439   -0.11111368133622    0.07916366360929
H           0.39296121303679    0.20457329425163    1.49870965701106
H           0.92106144256371   -1.41346758171481    1.19248390140880
