    26
        -50.45966325  Gyration_radius:  2.5937800571 Dipole_moment: 3.960
 S          -1.34157378251305    0.51584428412834   -1.96149365367898
O          -1.61583521078461   -0.84876130729669   -1.51401826001119
O           0.07994592042582    0.76309908752309   -2.03230508340304
O          -2.08658486536936    1.50178631667035   -1.20179150949714
O          -1.89365654194661    0.61234826216760   -3.45033723886388
H          -2.83552069656566    0.63992407017194   -3.31377371337819
H          -1.60564115420241    1.55782740450586    0.32629979799871
O           2.28795804492772    0.13392088280351    0.41461491830066
H           3.19235817150334    0.20636914855625    0.10816645369857
O          -1.23783284155274    1.66301868009001    1.24127629959626
H          -1.90160025159021    2.14528476354600    1.73669524924326
O           0.07913988118038   -2.76972834897811    1.84717145007933
H           0.67222718955708   -3.25291038201635    2.42393762934516
O           0.36738384165466   -0.22425056254113    2.45725616771700
H           0.05297036927662   -1.84158011435272    2.19436405719495
H           1.17537173916692   -0.05083087757489    1.95502418264886
H          -0.29248590351590    0.39301076734744    2.09676128360732
O           1.06266463481112    2.33314905330454   -0.15438738571025
H           0.31259301711650    2.34839951106888    0.46114694237714
H           1.86451651108521    1.02651583220330    0.21381836087896
H           0.70142588504977    1.94018178025603   -0.97690174981853
N           0.60723856963192   -1.76898221570058   -0.58078840089882
H           1.03883417357126   -2.36273342141876   -1.28057737369114
H          -0.31703165372305   -1.38311608255680   -0.97383106022229
H           0.39175939296301   -2.30355504043526    0.29768073725827
H           1.24137556984312   -0.97423148145358   -0.33400811076534
