    26
        -50.46111933  Gyration_radius:  2.71259359496 Dipole_moment: 3.933
 S          -2.28220670870211    0.69225298889132    0.61808573322953
O          -2.22561921367086   -0.57648662153754   -0.10307958689199
O          -1.42770759754806    1.70166494533070    0.03115199630682
O          -2.04146820687647    0.50427983133960    2.04079272726189
O          -3.76973286506519    1.21640769212403    0.47380539425521
H          -4.26800957579394    0.49374471796037    0.84174567748901
H          -0.63951864757739   -0.10087406182910    2.47944268405958
O           0.26769350308195   -0.47287942372517    2.65717046401152
H           0.22425202348809   -0.86664222811035    3.52938375298330
O           1.66643797581536   -2.65650012588136   -1.73520284366067
H           2.54793470852432   -3.02622037121150   -1.67289526845789
O           0.96995418386630    1.35814487993941   -1.06070652794874
H           0.02463270594031    1.59628982147050   -0.97522847239537
O           1.75336127967487   -0.32683159151635   -3.10480123627587
H           1.11536726962046   -0.18649021109784   -3.80636218094533
H           1.59777686259163    0.37692174750753   -2.45176495218391
H           1.73154205234644   -1.88763970915399   -2.34135516839270
O           0.90352873128502    2.06705899385522    1.52131076634203
H          -0.01840337926982    2.16590332446852    1.23535460413433
H           0.90525452720724    1.30557406256826    2.11486244815466
H           1.35944052562367    1.77473258877733   -0.26755517238159
N           0.33409538670297   -1.05415376378368   -0.00039908599538
H           0.52659929551810   -1.06734464478531    1.01413099851402
H          -0.71828357869985   -1.01447423034905   -0.11833819904868
H           0.70425972144060   -0.16304413823881   -0.41077080925333
H           0.75881899047378   -1.85339447301385   -0.50877776290866
