    26
        -50.46111934  Gyration_radius:  2.71302221617 Dipole_moment: 3.930
 S          -0.46861550346577    0.72701843025956    2.30805677800786
O          -1.27916659266649    1.30836829909528    1.25995048154631
O           0.95254542744479    0.71146037468129    1.97203503452456
O          -0.93110255503406   -0.59089423108890    2.71632583915430
O          -0.61374014291227    1.67132618561958    3.57117078953503
H          -0.03384944061197    1.25034048338582    4.19755790524518
H          -0.82088798023428   -1.77184185169527    1.65949658612547
O          -0.72322867035672   -2.44255196110084    0.92896929557971
H          -0.72510707657505   -3.29963016523087    1.35685585780816
O           2.79337910395913   -0.47180817730047   -2.19507914827061
H           2.94191951208952   -1.04060257519177   -2.95134081995705
O          -0.94601022456610    1.07289340988992   -1.36552913981875
H          -1.02649629054542    1.48801586893888   -0.48302342792773
O           1.26265321996383    1.63292258532543   -2.92756787649350
H           2.34500611055802    0.33118848121946   -2.53695594931494
H           0.39243496132709    1.49075732282193   -2.51724663720140
H           1.54114953735674    2.51206783357094   -2.66581446800871
O          -2.63414643783136   -0.64789169400223   -0.19771329177957
H          -2.19950594288521   -1.46506741760406    0.07708244102611
H          -2.44101434134775   -0.00723965615445    0.50498493597672
H          -1.71481416217834    0.47039873617298   -1.38031053444599
N           0.88273544472421   -0.60517572211252   -0.27558383869449
H           1.08281591690299   -0.07357249572956    0.61907715876098
H           0.19106903392133   -0.02414473533449   -0.80804694645846
H           1.73122359216415   -0.72750702214795   -0.86096118457646
H           0.44075352081687   -1.49883031630279   -0.00638983030831
