    26
        -50.46111934  Gyration_radius:  2.71293196656 Dipole_moment: 3.934
 S           1.30469635941906   -2.06444083661702   -0.33149351569168
O           2.03701857786817   -0.84485603105332   -0.66206483430835
O          -0.04813186463798   -2.05450108965548   -0.84467508949243
O           1.36739820745198   -2.35028370721784    1.09391452040331
O           2.06052774848169   -3.24658306780100   -1.06601700614156
H           2.93940590724994   -3.16807460777613   -0.70923233811514
H           0.75336033577443   -1.27620286730529    2.09056019296402
O          -1.70785806591203    0.01472118197458   -0.99677289684340
H          -1.15012789208489   -0.73849475338940   -1.27822762759992
O           0.33405208717557   -0.55336145434610    2.63344917804190
H           0.69816550522373   -0.64168558794830    3.51510576697407
O           0.35523977186470    3.54330560273797   -0.40417187712881
H          -0.05439186532494    4.29501046674777    0.02563160105353
O          -1.36072939564594    2.47659883113350   -2.20090344719257
H          -1.65135817828157    1.62720971094138   -1.82668521361979
H          -0.25178829577145    3.27319540067621   -1.12618359760579
H          -1.03537845468284    2.28344568515288   -3.08169019268373
O          -1.90821726516966   -1.54383718933948    1.17225226231232
H          -1.35850868196360   -1.23415074389654    1.90307165375315
H          -2.20683174615114   -0.36711006592792   -0.24873414082737
H          -1.30743561586945   -2.03824103207477    0.59249073740744
N           0.44440592379730    0.94432765455917    0.36405683845901
H           1.19603249852360    0.35014733942136   -0.08878327073561
H           0.60984327806618    1.96039647289230    0.23057121790116
H          -0.45324758876872    0.68696426065430   -0.11287807173262
H           0.39385869936993    0.66650041742373    1.35740917037595
