    26
        -50.46111931  Gyration_radius:  2.71286604839 Dipole_moment: 3.934
 S           0.93133962809246    2.25172952319973    0.36798865617157
O           0.34394350600414    1.98908396129645   -0.92801105047957
O           1.80698288971754    1.17142803767344    0.81427840230638
O          -0.05860058369926    2.58430264180023    1.38133796323105
O           1.85473338517237    3.52718789485590    0.19817544733398
H           2.23033977658677    3.61362828656207    1.06844128757391
H          -1.07821476973783    1.44733033292349    1.81920905364465
O           0.90815890159333   -3.43520937949244    0.46812431265362
H           0.39733986492502   -4.23509349360753    0.59803670434873
O          -1.67867530221350    0.67756024575003    2.01907324811259
H          -2.05304219155213    0.85340631861662    2.88315007291646
O          -0.49604554957209   -0.34362560995773   -1.88317651971678
H           0.01427185784263    0.48783860962183   -1.80644920462520
O          -2.32852417838614    1.21609708328473   -0.70717108049178
H          -1.41342448492175   -0.03462240591265   -1.75175733497926
H          -2.42470138237006    1.02897665181919    0.23511964147635
H          -1.55061641119896    1.79208111393642   -0.77503612327028
O           0.85718831505753   -2.73796655497460   -2.14377515238317
H           0.96241623742395   -3.29645550307040   -0.50174966174512
H           0.29941300517026   -1.94323644410663   -2.20108765113881
H           1.68561458669526   -2.51473965838760   -2.57150912074606
N           0.15497213681567   -0.84073660541989    0.70085094523513
H          -0.60942134755364   -0.54830625610759    1.33070446617617
H           0.93883541448921   -0.13642109136442    0.81265851576926
H           0.47235990835416   -1.81512101159975    0.86641942481688
H          -0.16664321278470   -0.75911667729600   -0.29384524219370
