    26
        -50.46111937  Gyration_radius:  2.71262612169 Dipole_moment: 3.931
 S           2.32188173882778   -0.19452446033268    0.80079697052737
O           2.06604276384815    0.78119425815132   -0.23651649773774
O           1.68147937250022   -1.47897942083581    0.53041155261850
O           1.99038086799230    0.29327387165130    2.13103040589399
O           3.88178836691316   -0.46816582949760    0.79235354616640
H           3.96653850123392   -1.13658341514774    1.46461266940523
H           0.46070402597168    0.57485703148109    2.45452522780829
O          -0.51756812000095    0.73311325947591    2.55934427085913
H          -0.68617948783634    0.72233714872778    3.50228927723843
O          -0.18004193818325    1.13166839249782   -1.61176012100523
H           0.76207901167497    0.94722236339864   -1.42190035857636
O          -2.69612656537647   -2.09988021907039   -1.08003019552294
H          -3.64826153611518   -1.99485300660401   -1.07778452342911
O          -1.62923735886903   -0.67627290591205   -3.11606218981922
H          -2.37288508304095   -1.67220320538639   -1.90184310534779
H          -1.17055548809597    0.07792681105754   -2.70775732905083
H          -0.98634870907996   -1.10490308301107   -3.68346206396594
O           0.16071129794519    2.65680611325666    0.56363967804370
H           1.02387723228126    2.22855408652304    0.44942077679749
H          -0.34049840084890    1.94119262410458   -1.08907844504859
H          -0.21713632280864    2.25899321617446    1.35810204844391
N          -0.79694505272272   -0.71616973302730    0.27309362700688
H          -0.99389335197024   -0.26012612483310    1.17846274338087
H          -1.54105388879387   -1.37622454511540   -0.02392831269149
H          -0.68749822831372    0.01828465365328   -0.46725519944565
H           0.14874635287854   -1.18653789133634    0.35929555749402
