    26
        -50.45909985  Gyration_radius:  2.53950258831 Dipole_moment: 5.603
 S           0.65761050845705    2.21970489081431   -0.51909445678775
O           0.71440222363123    1.92362098338081   -1.92407318698830
O           1.92217618248053    2.02054917221036    0.19201066577971
O          -0.41198538958523    1.52011777211838    0.18126052164495
O           0.33452621057302    3.77233881533470   -0.39213125583527
H           0.40483248579791    3.92094049062846    0.54580869716006
H          -1.64805513184258    0.71370088894603   -0.42395287252138
O          -0.41400473959495   -0.86172987996443    2.75975950351523
H          -0.41081364411467   -1.53150589052418    3.44483619139040
O           0.87551421953220   -1.95947731927022   -0.87372475745209
H           1.44790548594647   -2.53125657443076   -1.38637852090349
O          -2.38111097493112    0.16583927904390   -0.81031165347323
H          -3.18287725288891    0.67820065024124   -0.70242090426789
O          -0.31548086092034   -0.42463749103414   -2.54916949908920
H           0.41488729529596   -1.36152584449603   -1.55073150792759
H           0.10614339734709    0.45734149605099   -2.44756010229186
H          -1.20726731327689   -0.31399306193293   -2.18485170368895
O          -1.51872942433203   -1.97580897146002    0.64669510763779
H          -0.73888128427715   -2.18727927827906    0.11431066853532
H          -0.95072526180106   -1.23613061631298    2.01143083157759
H          -1.97608460792950   -1.27295937744263    0.14835498168365
N           1.66865688508712   -0.35445413953126    1.15440890200629
H           1.76608909198020    0.65382532041156    0.79091197919199
H           1.42785366677525   -0.97327478086531    0.34510416599000
H           2.53930618412494   -0.64916974715958    1.58494005232474
H           0.87611204846894   -0.41297677648287    1.84456814279189
