    26
        -50.45730945  Gyration_radius:  2.44931918772 Dipole_moment: 7.988
 S           0.03991278117427    2.40853569630559    0.24642017821930
O          -0.33576699260634    1.41289108600800    1.29745198070918
O          -0.37275457385410    3.72813223910607    0.56843785352458
O          -0.36126449660227    1.90541939629644   -1.06031382722153
O           1.62751622537601    2.34251816599832    0.23398302051101
H           1.79776311571535    1.60088874371243   -0.37125710866907
H          -1.42218981177698    0.83020434618845   -1.43715875901664
O          -0.44313612201240   -2.36893633558131    1.01793443170765
H          -0.78549778754599   -3.13216113033840    1.48349923576938
O           2.14544540498384    0.02868688873588   -1.08511089377229
H           2.66246566474898    0.17448200488416   -1.87795013435888
O          -2.04120364370888    0.08342597180149   -1.67924827004674
H          -2.57009118614425    0.40950657676887   -2.40802688071877
O           0.13447268969963   -1.54867515772065   -1.61386232513869
H          -0.66567192067166   -1.01260256049544   -1.77562393205170
H           1.35960070542169   -0.52539549032258   -1.36582661411812
H          -0.04267779459090   -2.02990490765830   -0.79229711186892
O          -2.19241901102199   -0.48226237771866    0.97928142736766
H          -1.18413303612556   -1.67765182136734    1.02434984609785
H          -1.64649268029380    0.29711563958237    1.21287553002480
H          -2.39652753042039   -0.35689124669391    0.03638523365128
N           1.36908608684684   -0.43765785641476    1.49048354635972
H           0.64123597195557    0.41079728369478    1.45431657380206
H           1.91815138925182   -0.40199548942844    2.34149539999500
H           0.80106656287114   -1.31029215141094    1.42425699367393
H           1.96311001932718   -0.34817753393525    0.65550458556596
