    26
        -50.46944047  Gyration_radius:  2.47849201549 Dipole_moment: 4.356
 S          -0.05807601577139   -1.81807857725643   -0.99532643669167
O          -0.96382517711311   -0.75154797503805   -1.41015793357458
O          -0.68613288139286   -2.78402978454939   -0.12876746928120
O           1.19097350267836   -1.28302001194167   -0.47164566727233
O           0.34623087173277   -2.60133207460360   -2.31601279487106
H          -0.33435579544342   -3.26346932333026   -2.37685661459172
H           1.30015000623893   -0.71631433208065    1.00015775859131
O           1.35113129709189   -0.29347257942042    1.90020346806480
H           2.25846200988505   -0.40461102789730    2.18817155025092
O           0.86520695287585    2.86287981498873   -1.07951019048860
H           0.29348280883074    3.40228518634034   -1.62809169808671
O          -2.18221730677089    0.46476707334043    0.59830147933188
H          -1.88915833892461    0.04460292347780   -0.23880749920226
O           1.06780544381361    0.60186162077114   -2.38651340070058
H           0.18306677202146    0.21576710559480   -2.23391282455496
H           1.03112403607411    2.03254079580866   -1.60666016890899
H           1.63785210139560   -0.00116980590101   -1.89173411819746
O          -1.25211870592444   -1.48166975948178    2.13255654829697
H          -2.07304469036335   -0.25018675114761    1.27008879507505
H          -1.12673307387420   -2.10170922765563    1.38669684699027
H          -0.36441040666524   -1.18926090372934    2.37241344756921
N          -0.11095943124140    1.88534455257419    1.19696601094994
H          -0.27515978707481    2.58669481449556    1.91050496219740
H           0.54501143902011    1.15544622775998    1.54392070927759
H          -1.03852736576508    1.36418455479753    0.94205424683831
H           0.28422174468591    2.32349746411238    0.32196099296800
