    26
        -50.45059457  Gyration_radius:  2.46316761011 Dipole_moment: 4.139
 S           1.45388679899545   -0.63868720257436   -1.21743610544822
O           2.48809345142363   -0.71196740785918   -2.17982819747655
O           1.33130096868093    0.62404952935227   -0.51439367872179
O           0.09057942261404   -0.93621485860816   -1.90084995467014
O           1.57252843179220   -1.76003773538050   -0.17176993454968
O          -1.36038514545736    0.07652639334034    1.79776656082509
H          -2.00347753064194    0.35636431054809    2.44972964108531
O           2.76406578931295    1.18229792935135    1.67697423207767
H           3.69648968882262    1.09451556455485    1.47352212393933
H           2.29208334521669    1.18319417586199    0.82243864480315
O          -0.98656045315299    1.90939354424282    0.04787261829382
H          -0.07876919542418    1.65353464722227   -0.18860205889797
H          -1.52819898652306    1.67927981622971   -0.74273509409034
H          -1.24070991031119    0.85320978411227    1.15771963649669
O          -1.30462615580937   -1.91428483645141    0.01965481488633
H          -0.71130591520474   -2.56260059925138    0.40925295342043
H          -1.43815827390558   -1.21436476191113    0.69711566550176
H          -0.51097062554403   -1.31558492637859   -1.18879420741415
O           1.14977887645336   -0.89158610106095    2.13797872660285
H           0.25409455236361   -0.49720744034002    2.13466026732322
H           1.41152509033783   -1.40851159679169    0.80012975824587
H           1.77546321061582   -0.13591698866411    2.19329956011102
N          -2.21902883693681    0.97920071889554   -2.19911790340087
H          -2.40658282200166    1.62355446145178   -2.95673416424041
H          -3.03737849320035    0.39641976618119   -2.07523541270522
H          -1.45373727251501    0.37542382392941   -2.48261851199954
