    26
        -50.46944051  Gyration_radius:  2.47835100954 Dipole_moment: 4.357
 S          -0.44931725189804    1.50525981145006    1.35145953927028
O           0.94625166399777    1.26097250086855    1.00107466078521
O          -0.83245585698050    0.88927495145860    2.59740038994709
O          -1.33995528910555    1.19227771772062    0.24273028118272
O          -0.58909003050051    3.07205337452968    1.56786427954200
H          -0.38643412848389    3.16931953261033    2.49228172757439
H          -1.76345522763940   -0.29434039989468   -0.08905056968676
O           1.62134228002633   -1.29663615066956    1.01109864307033
H           1.54479174370302   -0.31976162841965    1.06665302248832
O           1.24847520435971    0.21732942608507   -2.91572411794620
H           2.18315124241741    0.36465372161832   -3.06874217006610
O          -1.97163778250726   -1.23430346923602   -0.34322878200356
H          -2.83366542059948   -1.20522423183993   -0.76114496689473
O           0.51601942049213    2.22850984103713   -1.40558830340629
H           0.92203440196973    1.98159442299048   -0.55162510827869
H           0.93089499599404    1.02330715685910   -2.42135413843150
H          -0.42681924081489    2.14948358607266   -1.21010263246754
O          -0.70908039735027   -1.74577463666619    2.18357928492466
H          -0.79946677199703   -0.82743084756901    2.50764217513319
H          -1.33137679680325   -1.81888297227230    1.44975501613841
H           0.89419977177506   -1.62225117643322    1.59392328860672
N           0.52430532186862   -1.75576114682166   -1.28066064847959
H          -0.48422752070455   -1.63558534624864   -1.05321105874018
H           0.69915557575891   -2.68330484584658   -1.65091541681414
H           0.81860230765709   -1.01317599601643   -1.97040491778739
H           1.06775780540700   -1.60160318542049   -0.34370949765136
