    26
        -50.45568725  Gyration_radius:  2.56658842276 Dipole_moment: 1.977
 S           0.01774330604972    0.52657173794321    0.86369005793253
O          -0.65339967131836    1.50820188645176    1.84452889536170
O          -0.60335581943699    0.76519272659112   -0.46374058589534
O           1.43295998488432    0.84551383881291    0.82736474216076
O          -0.23408508777008   -0.83690876545420    1.29189593174766
O           1.69947322076271   -1.55068931579596   -2.30593161086330
H           1.04521238345071   -2.20282196521325   -2.56256687488431
O           2.63893601792791    2.14184382072659   -1.05647074456761
H           2.29247124882937    1.68180622943948   -0.24802297850195
H           2.50604854171863    3.08032513065978   -0.91097708388068
O          -2.97078810815860    1.13074118080195    0.85500286434208
H          -1.62898963480605    1.46155074669592    1.59482776740336
H          -2.49884485205195    1.00768359474580    0.02067940130737
H          -3.17095531636006    0.21772774835847    1.18893165298193
O           0.91287948870072    0.85411570428288   -2.39934116343419
H           1.26170457295290   -0.11848119663122   -2.45290312297404
H           0.20158229365241    0.83461177584159   -1.59434277138800
H           1.67965271933649    1.41723559387444   -2.01579531316450
O           1.98937785128880   -1.81660644806534    0.27240898845542
H           1.12643771729283   -1.60640469973662    0.68930843621962
H           1.87820813302333   -1.70089130609186   -1.33392328608803
H           2.57022383494335   -1.11491631882505    0.58217930356540
N          -2.98960555925645   -1.39814460691902    1.73792789124984
H          -1.97286497852015   -1.37487113163063    1.64115663136039
H          -3.33156696853758   -2.19671406514840    1.21838779975730
H          -3.19845531860998   -1.55567187570391    2.71572518180003
