    26
        -50.45708419  Gyration_radius:  2.5147541891 Dipole_moment: 8.091
 S           0.65403445133018    2.06648883088521    0.62169469002820
O          -0.31521257883389    1.56147468481708   -0.31434407696754
O           1.98695957454689    1.49358956690517    0.40303996335163
O           0.24534142205130    1.91519514419009    2.01043134309583
O           0.79734365575709    3.61810756608445    0.35830221719281
H           1.40884898099161    3.88459663667661    1.03719711957307
H          -0.25304191328306    0.43795351250992    2.17971825409566
O          -0.43018055714758   -0.54144371031088    2.27019650625962
H          -0.74609724130112   -0.67111497784863    3.16626158218792
O           0.39774812069185   -2.14586247031569   -1.33955648167370
H           0.36616925144727   -3.03661535707897   -1.68932866372685
O          -2.56745804813549    0.41836928447529   -1.37992521361924
H          -2.03711212282730    1.04309558090508   -0.86357365734538
O          -0.15635416135013    0.27905173430122   -2.76638465699576
H           0.15338395407850   -0.58226285372377   -2.45939605370190
H          -2.04674952233527    0.30733808347781   -2.19273704574356
H          -0.05583771195157    0.87278745210379   -2.00647884207440
O          -1.73194656657747   -1.66888996740835    0.01591604867312
H          -1.43076114540839   -1.24497311267554    0.83253057832557
H          -2.18249765181744   -0.95194511083742   -0.49989084950242
H          -0.48294702621538   -1.99541980708592   -0.86152491957056
N           1.70403363203795   -1.03537865183102    0.69797179451272
H           2.54443856568760   -1.49512401316851    1.03167200950411
H           1.33356963107921   -1.49696860892136   -0.17080271518184
H           0.94934160846655   -1.04633908907491    1.41530440426833
H           1.89498340902330    0.01428967295113    0.50370665503204
