    26
        -50.45490201  Gyration_radius:  2.54739144891 Dipole_moment: 5.625
 S           1.51275228535848    1.13013107906977    1.41924263311917
O           0.62390041510766    1.59325700621900    2.45324252606161
O           1.63219169961972    2.07307401104916    0.29840253125382
O           1.24694600845991   -0.20694118192131    0.93234415963319
O           2.96264032732631    1.07800335435353    2.08481628718305
H           2.88317711529144    1.72532820220744    2.77840744645139
H           1.35640071717231   -1.08328413861560   -0.37976789516532
O          -1.82581329403469    0.76679637086602   -1.12486037472737
H          -2.54771849314449    1.38126941108395   -1.26164817805159
O          -1.71436248541375   -2.15468760951619    1.45337618603578
H          -2.60607159312569   -2.47399523531885    1.59931605443160
O           1.41367262514586   -1.48589009449990   -1.28858850284749
H           2.11898010457055   -2.13257708511746   -1.24550818397632
O          -1.61037866466838    0.56196862581633    1.40815961422611
H          -1.55549194725310   -0.40316341885902    1.57578414582587
H          -0.82714454264519    0.95419549504086    1.83817709977779
H          -1.71918456514185    0.69827094173508   -0.11268973076984
O          -1.33459354045932   -2.01830178224388   -1.22413622340098
H          -1.64348805152692   -1.10500851444586   -1.30817587393800
H          -0.36892612769704   -1.97587655707035   -1.30191518971919
H          -1.54711394964897   -2.23523636240788    0.48925266840326
N           0.71400359653491    1.06728172687063   -1.85359540802533
H           1.08376815522079    0.10167007218563   -1.90483131784995
H           1.14704503449621    1.53039557025647   -0.96333292461591
H           0.92629331752916    1.60042571927086   -2.68910594554801
H          -0.32148414708225    1.01289438398347   -1.67236562376237
