    26
        -50.46306693  Gyration_radius:  2.54469270423 Dipole_moment: 3.918
 S           0.92119247664383    1.66835226916726    1.19553795196768
O          -0.24242208852343    1.57714931224133    0.33551102826911
O           2.12966835200592    1.18937941661937    0.52509778196963
O           0.73505407052614    1.02620375759512    2.48112559437114
O           1.14310737429794    3.20715729260517    1.48311451843398
H           1.76397324153735    3.17588591992914    2.20321211893202
H           0.32052146912939   -0.59870863213169    2.52143154803156
O           0.14409794334498   -1.52366972121725    2.23109536759409
H          -0.68712592619800   -1.47311436444465    1.73610182773617
O           0.07876205103172   -1.61831912262505   -1.64083981205061
H          -0.35453812615386   -2.28760085989422   -2.17166604536476
O          -3.04075351166458    0.26833085103215   -1.81339891937319
H          -3.59563768546953    1.03269938064317   -1.65452773266728
O          -0.54100032783419    1.11550200956313   -2.32289815480911
H          -0.37299506387014    1.46567055266330   -1.42931436665600
H          -0.07041002882565    0.27307174676945   -2.35858990441948
H          -2.18453652745645    0.62363617141436   -2.15105174249650
O          -1.56249279549115   -0.70836005333496    0.19881741911090
H          -1.12673740296975    0.15870042629077    0.35565634857143
H          -2.30876751092625   -0.48856733767808   -0.39914192835337
H          -0.59074840891254   -1.32536103880060   -0.95946043762235
N           1.91309504046558   -1.37537746301080    0.31701420713448
H           1.39893788615549   -1.58234169516554   -0.56134929365012
H           2.09460191245126   -0.31913867422196    0.36079143263278
H           1.25488186676846   -1.58423197723415    1.14076607264069
H           2.78027170997597   -1.89694813674938    0.37696512008813
