    26
        -50.45942035  Gyration_radius:  2.43942825138 Dipole_moment: 2.740
 S           0.78624303695841    1.81071335541454    0.88246848087492
O          -0.43213593450323    1.52277602291143    1.63796651762376
O           0.58572173625523    1.68105896425266   -0.54400581441376
O           1.91374135512601    1.05557717725600    1.38624966062009
O           1.11668995904394    3.33685912730722    1.14291874247426
H           1.40605295036669    3.32884133913572    2.04921531272407
H           1.20420502453404   -0.37905848693836    1.72684766634391
O           0.74679930531420   -1.22945792257298    1.91791533228789
H           0.47819966887402   -1.17311843663130    2.83676115453404
O          -0.52886505289684   -1.65127279406760   -2.02013050883083
H          -0.42412355006144   -2.28794692236691   -2.72723988621141
O          -2.38850034310574    0.47794688539975    0.47410555520829
H          -1.65106381591283    0.97509754727724    0.99939301724247
O          -1.55975243903464    0.87716106928725   -1.85875743313045
H          -0.74409507276887    1.32220586315448   -1.54424009534062
H          -1.27722522580696   -0.02327187985968   -2.11005088689734
H          -2.18920745654586    0.70212529943574   -0.53513744489175
O          -1.45589929396762   -1.84498880578420    0.52137434152568
H          -0.62784232680437   -1.70794480258727    1.03532197621156
H          -2.11370757407239   -0.53991903492589    0.55901104251052
H          -1.18060152124731   -1.94037468050281   -0.41151207510587
N           1.78146135819396   -0.86455270041184   -1.06894195370458
H           2.65037975895832   -0.86807843730527   -1.58831320139286
H           1.54610509954998    0.10855500346077   -0.87307051396939
H           0.39874556895663   -1.38589184072102   -1.71558423740161
H           1.95867476459736   -1.30304090961560   -0.17256474889062
