    26
        -50.46705763  Gyration_radius:  2.5185836472 Dipole_moment: 3.174
 S          -0.09318205670949    2.13686282484492    0.68873289575533
O          -1.32866539026109    2.84058317175671    0.50149198178695
O           0.77710413869788    2.14349779407221   -0.48398399648839
O          -0.25985188553775    0.77920329429078    1.20282659048496
O           0.71003791291030    2.90435808399813    1.83446336381966
H           0.40157939315516    3.80318411109799    1.77165359078629
H          -1.72362255820179    0.70120746385428    0.21275919546230
O           2.31475282535486    0.31847253830759    0.58420967216432
H           1.64034488828805    0.24298086241032    1.27385921937386
O           0.11077375010157   -3.30640691644381    0.10618398720865
H           0.53472107055673   -3.82320238432398    0.79272636882946
O          -2.40576583677837    0.45938070215076   -0.43825279852440
H          -2.91117357587236    1.26767736204395   -0.55746302516794
O          -0.30272865377071    0.38685461274126   -2.16714134783378
H           0.10594055598795    1.15168531150921   -1.70957755658706
H           2.01396099808836    1.11817008597832    0.10243951070084
H          -1.17798185313289    0.28595281302563   -1.74658314652880
O          -1.52330344722564   -1.64744032276233    1.33672945485946
H          -2.23667519156105   -1.36921033350606    0.75169405531081
H          -0.56880311259745   -2.74866656317774    0.56662409519989
H          -1.00729527320081   -0.83857687746577    1.48952101067498
N           1.39867422887350   -1.38127712571632   -1.23334577457081
H           0.66607033106862   -0.74871008128152   -1.69260269188910
H           2.06526281995280   -1.70554809916706   -1.92520707820100
H           1.87632419871968   -0.77968626999151   -0.49887205912785
H           0.92350174311224   -2.19134604823180   -0.76288552746745
