    26
        -50.45730950  Gyration_radius:  2.44926660824 Dipole_moment: 7.987
 S           1.48479392734137   -1.90128544181345   -0.20730011666470
O           1.15850576943424   -1.16084339872629    1.05063021255039
O           2.63783458433630   -2.71938693146254   -0.07880657803753
O           1.47080310603843   -0.97402679824183   -1.33052087668954
O           0.20879629572214   -2.82208903864981   -0.42859979362518
H          -0.39403243511216   -2.22674464726031   -0.90553112880480
H           1.61787415062239    0.57567951220118   -1.35208086243402
O          -1.13772127219048    1.82764890965195    1.48642057159909
H          -1.34825467080457    2.50721022041582    2.12704004702793
O           1.62826503369547    1.57526801370744   -1.36444442547576
H           2.23980160302336    1.82072217296998   -2.05940224853624
O          -1.65795780894240   -1.08738687465250   -1.36045116061854
H          -1.97432861005575   -1.33195129497787   -2.23065963439408
O          -1.08934820646815    1.45926184982238   -1.30550843220807
H          -1.24847581648525    1.74244311302388   -0.39313623991918
H          -0.13127016121369    1.58207009670510   -1.44956359730534
H          -1.39699263637133   -0.12230486585133   -1.42254244545678
O           1.40840008265386    1.48299756473322    1.34731312846941
H          -0.12684508975326    1.75797037550840    1.46954370972689
H           1.47555930785892    0.50552683625096    1.35562338744020
H           1.63939107662726    1.73048056769710    0.43525408662548
N          -1.32929715605837   -0.85169757631219    1.33958275893743
H          -1.74071386300948   -1.09130804731562    0.42775881199936
H          -0.23010946799996   -1.03838163443003    1.25049452057573
H          -1.43672138606663    0.17128016650601    1.51427954473060
H          -1.72795638682347   -1.41115286950427    2.08460677048537
