    26
        -50.46305517  Gyration_radius:  2.55587632173 Dipole_moment: 5.339
 S          -0.02745710745989   -1.10131676887029    0.40028992213405
O           0.76895030205868   -0.63074439334363    1.52361836620875
O          -1.45335412779549   -0.82131810268686    0.59527091046458
O           0.43997279499605   -0.55241561160200   -0.86803993382602
O           0.09615640527132   -2.64582279607042    0.32248878491437
O          -0.58171015486748    3.12393972879402    0.11469922620515
H           0.16039232487891    3.69006445418499    0.33163378317698
O           3.33266564096785   -1.26668440362116    1.32187478770953
H           3.55224906204914   -1.74355412893087    2.12399121920570
H           2.41990918651413   -0.92891499061922    1.44936122196922
O           2.35676099226190   -2.45929690478825   -0.87565221245494
H           1.94842327224900   -1.67076235862601   -1.26302009176277
H           2.93307777432774   -2.12005359547013   -0.15831408273586
H           0.98166526328891   -2.77969393720060   -0.12429382338764
O          -0.80236669288652    1.40408022583910    2.13510982374279
H          -1.60414521790790    0.87950731150737    2.05660992014169
H          -0.08919110373396    0.74299189219372    2.02699647341849
H          -0.68919278573176    2.51667784668912    0.88592433910197
O          -0.49610933665041    1.59519576681498   -2.05196767567661
H           0.04959612288807    0.84733257389216   -1.71968449874667
H          -1.76067892062967    0.93953203034237   -1.78871864319490
H          -0.46451764967015    2.27270301530284   -1.33499288239473
N          -2.60608719893427    0.32782997049401   -1.39246263267007
H          -2.16306453368800   -0.20381631102353   -0.55716302833794
H          -2.93739114480052   -0.33417978763859   -2.08584597090900
H          -3.36455316708000    0.91871926446823   -1.06771327235446
