    26
        -50.46705741  Gyration_radius:  2.51884814431 Dipole_moment: 3.165
 S          -0.83703792312112    1.53582258822442    1.41262239026142
O          -1.56305022535910    1.05827300517922    2.55353061964437
O          -1.64249192220057    1.64257645723029    0.19912118941568
O           0.39961166461198    0.80241502960721    1.15190800582313
O          -0.35914951897343    3.01995832782700    1.75277743607418
H          -1.01880697167621    3.34308046364489    2.35903016372964
H          -0.47191517074659   -0.63867260033843    1.70594340118077
O           2.19052688853138   -1.91348088316552   -1.58733335681241
H           3.08840884072498   -1.65544652834663   -1.80008974298866
O          -0.88792856199503   -1.51654315758138    1.76629012565905
H          -1.54872904919251   -1.41475782107459    2.45613265264126
O           0.50323808218123    1.99015269976281   -1.25484281997106
H           1.00017330853845    1.77050993666852   -0.45400054883708
O           1.89658353639275   -1.48607900169800    0.99441784836585
H           1.55862086083527   -0.57873166391033    1.07416360483575
H           1.19425096250824   -2.03573317875416    1.35943152512371
H           2.11323453219358   -1.83897834748898   -0.60066974772259
O          -1.93391522545444   -0.85912396956384   -0.66127352952494
H          -0.40631695100977    2.08498312970691   -0.90069236885861
H          -1.64310507346800   -1.33517791008569    0.13991243934276
H          -2.02354203536569    0.07484927316458   -0.37652689610753
N           0.08394189388334   -0.41812811059559   -2.28204581436077
H          -0.74723921275498   -0.71116654881615   -1.67300168465318
H           0.31895413740695    0.57531448429003   -1.98645555561362
H           0.90586516362993   -1.04214024364887   -2.08532004110269
H          -0.17018205011011   -0.45377542024237   -3.26302929554790
