    26
        -50.46705754  Gyration_radius:  2.51864386077 Dipole_moment: 3.178
 S          -1.87282678832539    1.08639672298774   -0.60199834772447
O          -2.68082228025021    1.64440728675137    0.44325282569681
O          -2.13857143413039   -0.32484423569639   -0.86770392271301
O          -0.44074948653345    1.32065778919086   -0.42976972553216
O          -2.24776807392078    1.86324869408117   -1.94481408003648
H          -3.14980386139873    2.13743050499119   -1.80969257954487
H          -0.72681157186373    1.12850744518447    1.30383127054834
O           3.21197318537981   -0.65651375585515    0.45635828634347
H           3.91988912323071   -0.37139839845178   -0.12294953422799
O           0.00444975060063   -0.50199896065293   -2.35472648017888
H           0.22000607069003    0.38837833481112   -2.04356567190629
O          -0.71649677515131    0.83343471247435    2.23147307255135
H          -1.55874793721329    1.13548623627989    2.58136060569114
O          -0.97830112773206   -1.64410519296055    1.13172748415490
H          -0.91353917536414   -0.60803325911910   -2.02579726881266
H          -0.82473313801167   -0.89791302242028    1.74229738744661
H          -1.56217266346557   -1.27818390355134    0.43416086352857
O           1.84508553429302    1.51048013796232    1.06762947948811
H           1.37376549640193    1.39689631877324    1.90043439195939
H           2.75675033221997    0.17245565351842    0.75697727231435
H           1.14253582103206    1.57322239264468    0.39952098488755
N           1.08447378552434   -2.00100448218804   -0.45252025341275
H           0.30432719600304   -1.92367494191439    0.27776295999578
H           1.25264694668755   -2.97365502495771   -0.68450985681392
H           0.73688654743161   -1.46306296411629   -1.30071044910916
H           1.95855450387649   -1.54661408775386   -0.08802870461325
