    26
        -50.46705759  Gyration_radius:  2.51883254497 Dipole_moment: 3.170
 S           0.71835504182196   -1.34460422833276   -1.65166560816679
O           0.62713116434958   -0.85217678602503   -2.99549813054035
O          -0.51314869098211   -1.95561764948551   -1.15878376070968
O           1.22775819969015   -0.36257101506300   -0.69701349728695
O           1.81246006339003   -2.50648281985756   -1.65520504335977
H           1.77924081777643   -2.85282945884265   -2.54175834244886
H           0.34298042424350    0.84730293341061   -1.64009408630834
O           0.42285350849235   -1.99340886200769    1.28226095237973
H           1.15808205384959   -1.46402109271507    0.94281457341137
O           0.06227354679657    2.05011615241437    2.60027692522874
H           0.71369178070573    2.02556280570874    3.30250423813674
O          -0.26152591838569    1.55342548994763   -1.92901167861431
H          -0.33795729257659    1.42123264591163   -2.87753558259460
O           1.41795032344560    2.16294381540545    0.34524653271488
H           1.54396188423713    1.23989368368963    0.06960179696832
H           0.88788228862498    2.55263613994416   -0.35885089534543
H           0.57351969400816    2.18573934965954    1.76052333219401
O          -2.13402445842862    0.08218482210168   -0.60720919866819
H          -1.69824890110187   -0.74540047325626   -0.90147833099790
H          -0.02723649484888   -2.25909407656927    0.45224674367827
H          -1.65374022891982    0.79338352675601   -1.07264623439935
N          -1.34438882146580   -0.11187609296547    1.88912690937109
H          -2.08566268591941   -0.37706732748934    2.52814509146422
H          -0.63885428889255   -0.89896879206194    1.77834232973294
H          -1.74286794757636    0.05800283750853    0.90928193152361
H          -0.85048503233403    0.75169449222196    2.22637906261894
