    26
        -50.45730960  Gyration_radius:  2.44860187278 Dipole_moment: 7.979
 S           1.05439500045386   -0.23935878185328   -2.16334584165897
O           1.69841126367060    0.27593402858351   -0.91569361775620
O           1.79450265972248    0.07606602949291   -3.33299095136505
O          -0.35389779461212    0.13266294019861   -2.16866903191044
O           1.05411755984108   -1.81378949304288   -1.94890297855626
H           0.23509980704695   -1.95149185128051   -1.44347094938454
H          -1.09408526919203    1.26931914800204   -1.40381572887361
O          -0.96744676029324   -2.19555732597665   -0.17923816730127
H          -1.65241871070046   -2.76466790079594   -0.53158931058604
O          -1.58724417743396    1.94088850186546   -0.85156237919092
H          -2.16735471811749    2.40174094162656   -1.45834434446861
O           0.13585658337617    0.70255355021229    2.51547743354696
H           0.30463004409288    1.13477038876489    3.35277486253435
O          -2.04335609307214   -0.08212906550034    0.91230721974384
H          -2.02812018668553    0.65899651866353    0.27673981355938
H          -1.43576090829782   -1.37882251080640    0.16238452731975
H          -1.44020639534019    0.17934993359727    1.62344496383843
O           0.71542310599092    2.27387428616335    0.56191088103627
H           1.21135438271408    1.67388677666905   -0.03314937622780
H          -0.13116695513224    2.41808474148610    0.10479804415774
H           0.36577307882731    1.37875660597756    1.79660849075196
N           1.27616852253972   -1.24591369387636    1.05267827774513
H           2.09786092766369   -1.75086576558678    1.36381117457203
H           0.90384913773859   -0.60725967573300    1.78894172161163
H           1.51973129881298   -0.59879642659221    0.17359472583738
H           0.53388457638625   -1.88823191025597    0.74530055102686
