    26
        -50.46705749  Gyration_radius:  2.51854435816 Dipole_moment: 3.180
 S           0.43721660550050    2.08935330214782   -0.70297552354411
O           1.14696030075373    1.94842752810889    0.56554987680131
O          -0.63701272196574    3.03877518689590   -0.66698102861778
O           0.05152169759298    0.78184401784582   -1.22933080645384
O           1.51122218882854    2.64093673817070   -1.74674146119180
H           1.39844417522213    3.58620343782141   -1.71832653043755
H          -1.50048004556644    1.03529175597176   -0.42113597320313
O          -0.57405348139507   -3.25830223674906   -0.07962970861557
H          -0.18838433359309   -3.87084961263796   -0.70740580550734
O           2.38068802102968   -0.18693314834527   -0.30322918616548
H           1.79006799425825   -0.14012877426302   -1.06819432323144
O          -2.28949529629948    0.95946437142241    0.14397748954220
H          -2.62472717940230    1.85819592329129    0.19784811779594
O          -1.66646688137937   -1.33320546232904   -1.50722893620784
H          -0.97856056243791   -0.65334284303221   -1.59932973113644
H          -1.06217175252825   -2.58540642427807   -0.62165371638173
H          -2.36975994778340   -0.89662158818212   -1.01390980136117
O          -0.46554748572967    0.50431955367003    2.11432282414264
H          -1.28727426031757    0.57463705099954    1.59183992120239
H           2.20091194900267    0.67137827768055    0.13608021835893
H           0.14484729325320    1.15390507440590    1.70581372701206
N           0.92331681147725   -1.60542007554833    1.39848478438775
H           1.59879884329893   -1.13799582320516    0.72409341978729
H           0.29171192587495   -0.82113264566999    1.76428938310651
H           0.34644560997671   -2.31197900218535    0.87744665969286
H           1.42178055233167   -2.04141459199112    2.16632609022817
