    26
        -50.46305555  Gyration_radius:  2.55501702467 Dipole_moment: 5.329
 S          -0.23969241082340   -0.05024864923397    1.14622530580982
O           1.21442133665768   -0.18302826119564    1.27841429770247
O          -0.84111683423537   -0.63946930179484    2.44916570746236
O          -0.64251655283173    1.34418767499835    1.04138582041694
O          -0.73303751333907   -0.84628175782226    0.02763171701853
O           1.51464066608593    1.07084650336355   -2.57957229542285
H           1.02747316159892    1.68004361621406   -3.13611578450750
O          -3.27192976608907    1.65839803750093    0.98235978921201
H          -3.48334377626623    2.26164395979469    1.69681215557361
H          -2.29202045150881    1.63571173860649    0.92879809818283
O           0.58810359211870   -1.38202688193536   -2.17597105897948
H           1.61815412088497   -1.74731911045764   -1.22529827076384
H          -0.09196982591687   -1.20369126332241   -1.48800408932871
H           0.89101928867319   -0.49083148427016   -2.47274543215171
O           1.56067405964719    2.17534335602464   -0.15802230344036
H           0.67148082240090    2.04436977942613    0.22856750272174
H           2.13494858091727    1.68442052417262    0.43644803988019
H           1.56996748218391    1.50383061755815   -1.69368178171321
O          -3.10902982364958   -1.00060416654516    1.30643224056195
H          -3.41903773510870   -0.07726704064791    1.19111673425287
H          -2.55399175217908   -1.17644316958345    0.53199301955881
H          -1.78850371411972   -0.83610097733366    2.19274449250667
N           2.29280800418925   -1.85907613058209   -0.34305771700424
H           1.86353109655265   -1.18447724681502    0.38987970736691
H           3.24012691255996   -1.57312737886981   -0.56823619884823
H           2.27884103157243   -2.80880298723290    0.01273030397106
