    26
        -50.46705742  Gyration_radius:  2.51877875763 Dipole_moment: 3.175
 S          -1.97790977934052   -1.01588388360634   -0.32980428949351
O          -2.28871276899623   -1.43732293160647   -1.66495165339068
O          -2.30015704814753    0.38265702732495   -0.05929529874747
O          -0.60954544434143   -1.32183788955952    0.08159712157963
O          -2.89457899165271   -1.87502585296391    0.65443792854961
H          -3.66537066643039   -2.07902033166028    0.13359310584650
H          -0.14389851373005   -0.98040562764198   -1.59022887418712
O          -0.96102902925694    0.31292832654817    2.18530436079036
H          -0.65555957611722   -0.56068451821660    1.90302463124311
O           0.25981398862727   -0.61450104504836   -2.39692241366243
H          -0.36558273494301   -0.83613045230613   -3.09173249945917
O           3.12598348633336    0.50128573145388    0.96947541442416
H           3.52539889830947    0.13164140779908    1.75805598292476
O          -0.38518669388084    1.77986326036920   -1.27017067698643
H          -0.00784390011825    1.07555426103733   -1.83118182577321
H          -1.21376207261941    1.39622734178137   -0.91297478925139
H          -1.65882737855381    0.50048011208725    1.52203728519545
O           2.08782506030257   -1.52812214142483   -0.34978933290921
H           2.81778127712234   -0.27416405063970    0.43224074947266
H           1.16990465532522   -1.60101898017992   -0.04006727615242
H           2.00802347284715   -1.32295354184129   -1.28796313519513
N           0.84130519055345    1.89132634978335    1.04859941892617
H           0.16244102188713    1.30950092249824    1.62314140156298
H           0.91780390588176    2.83131517958056    1.42111027284065
H           1.77859312118165    1.41721049176000    1.03396984877241
H           0.43309052975805    1.91708083466393    0.05849454309513
