    26
        -50.46305548  Gyration_radius:  2.55508736267 Dipole_moment: 5.328
 S           0.57112662546798    0.53057042420113    0.87425953903832
O          -0.20916649583409    1.71719369157640    0.55687706363319
O          -0.18455185129961   -0.40211139929459    1.71606836760440
O           1.06264739621795   -0.13668020894892   -0.32627917386523
O           1.80167955329627    0.96141726906557    1.71486184048098
O          -2.56842878349771   -1.11626100110949   -1.50135800160849
H          -2.89022744055385   -0.59446074621631   -2.23783371186554
O           1.16749923927432    3.52226434718912   -0.80820015856190
H           1.11059898469261    4.33618931948932   -0.30489286455183
H           0.56176812629514    2.88847971041205   -0.36668728025892
O          -2.56319839754792    0.51724920699886    0.60058912452849
H          -1.79112008554000    1.10901121122556    0.49537502205925
H          -2.61053571112953   -0.52191566888277   -0.71380387541750
H          -2.36725196639041    0.03944160162932    1.41141642835379
O           3.06873506965775    1.67305436048319   -0.39884040488594
H           2.58952993287694    0.92758403732897   -0.79043932600380
H           2.56369296503967    2.46890350700170   -0.66993095149408
H           2.43826569116695    1.30721986949966    1.02410452298426
O          -0.11624975199061   -2.12645484261936   -1.56741351813355
H           0.40843620530137   -1.33406095931883   -1.31371872686359
H          -0.16748482446529   -2.66392211701797   -0.22307828205420
H          -1.03746611089631   -1.79413452134982   -1.68999549359087
N          -0.20342451083113   -2.83119519916204    0.87987120947829
H          -1.06559659365861   -3.29199647260612    1.15227111256716
H          -0.17163944846894   -1.82681465896662    1.28855117510411
H           0.60236218282419   -3.35857077063807    1.19822638332085
