    26
        -50.46433742  Gyration_radius:  2.52030241634 Dipole_moment: 3.770
 S           1.58712744125641    1.44196786471989    0.51782023355957
O           0.13983697409923    1.41777105276612    0.40179320466910
O           2.22656020345656    0.91866684673563   -0.68732329288101
O           2.07474477022874    0.79472632314859    1.71657808428929
O           1.99243518111609    2.96748413619394    0.62174409651204
H           2.90393914617149    2.90437818749737    0.88711640108220
H           1.57776045856056   -0.80380387412037    1.96277268851293
O           1.15268910194357   -1.67615626244225    1.80288875534107
H           0.19492108042140   -1.50152803077008    1.86661577595698
O          -1.08345760310566   -1.46819090188201   -1.60262058334202
H          -1.60102250211662   -1.90765341477749   -2.27756581536292
O          -3.32345864047522    1.03065465763335    0.32645546699484
H          -3.19714421577226    1.83658260416127    0.83033112633830
O          -1.48727826495116    1.07370667354541   -1.69608766418582
H          -0.78837102873865    1.36907404973826   -1.08179996243231
H          -1.23816836864478   -0.47680263372588   -1.72976264400425
H          -2.30932265375115    1.14712866989878   -1.17028250704805
O          -1.30232450246878   -0.69555254197543    1.11541820215663
H          -2.80115287576895    0.34481023287764    0.78221410002851
H          -1.35621832633705   -1.15213261202583    0.26238985888651
H          -0.77556939324461    0.11583222707338    0.94449894431975
N           1.48994453072298   -1.55907826020505   -0.78009151078783
H           0.54646951301866   -1.61469321243397   -1.21890755704011
H           2.14155420585708   -2.19556725429419   -1.22566395476496
H           1.84038337805020   -0.55031592335941   -0.84264287861565
H           1.39512240045412   -1.76130858402469    0.27411143182655
