    26
        -50.44529049  Gyration_radius:  2.48611835586 Dipole_moment: 3.292
 S           1.58987266328439    0.97401625754225    1.32995294619946
O           1.76722389457188    2.04989355403208    0.33857424341303
O           2.59456599875853   -0.04426576581832    1.27540339878093
O           0.22515241199614    0.47639486912208    1.25491993700809
O           1.72575404336362    1.68392323384727    2.74503362978582
H           1.03138718187505    2.33626291397286    2.73256378320876
H          -0.42799366800362   -1.00717587528993    1.41068740625066
O          -0.89116303062408   -1.87938291096744    1.42715303951483
H          -1.35034963918661   -1.91761452586769    2.26721662565126
O           0.12647908242249   -0.50902705122674   -2.17635696058936
H           0.61006905379517   -0.55201063583888   -3.00216051792539
O          -2.35336657017945    1.61557855865009   -0.11202873837251
H          -3.06813819689289    1.97691967758327   -0.63982798962021
O          -0.08787910609794    1.86963584292558   -1.24799836716953
H           0.73219602341071    1.99246650296390   -0.54794621974375
H           0.01763741682913    0.92778099395316   -1.63354700505193
H          -0.96287810505265    1.83914666435821   -0.70326888526502
O          -2.26373734657809   -0.92750411465585   -0.71162210388666
H          -1.86655395665775   -1.38176441913742    0.05879286060265
H          -2.39167952365409    0.62348889961552   -0.22993445174125
H          -1.56370752042998   -0.91306838674991   -1.37836498630201
N           1.41931963519697   -1.91174251820158   -0.46084344189365
H           2.07182667229192   -2.61819209418928   -0.77697238520519
H           0.66211296388459   -1.07932885106546   -1.48792982212397
H           0.72607431556524   -2.36475009589092    0.12602845322478
H           1.92777531610156   -1.25968072368063    0.14247555125561
