    26
        -50.45730946  Gyration_radius:  2.44930520555 Dipole_moment: 7.988
 S          -0.77119175208023    1.30969910288312   -1.88495721388692
O          -0.58860323072713    1.79286077512576   -0.48127688682271
O          -1.56223234726717    2.18962019032009   -2.66937779286365
O          -1.18321484719451   -0.08724532074214   -1.86472243458390
O           0.71124795294204    1.28469312772089   -2.45657472739257
H           1.02750911087882    0.41116162319405   -2.16980961006981
H          -1.84414410196753   -0.92027386275416   -0.72765356025215
O           1.78162253509420   -0.93322896445648   -1.31764259396701
H           2.07235110275525   -1.56913208218037   -1.97206175811160
O          -2.19136397119574   -1.48018415189335    0.02427563699342
H          -2.91605332653235   -1.98782905163952   -0.34218145110289
O           0.59927803392299   -0.16832193470052    2.54104961352663
H           0.63185140643726   -0.10182123337218    3.49550783877285
O           0.39788377610967   -2.13841483892604    0.53829665981619
H           1.20640202166201   -1.44206266907509   -0.67455157286165
H           0.54309424477070   -1.62524108138102    1.34668899490878
H          -0.55494273237237   -2.04818659962271    0.34400231197553
O          -1.68274647995842    0.63322086333131    1.66303199866578
H          -1.41575888297805    1.19954896096601    0.90935715568211
H          -2.07381273411263   -0.15295496231725    1.24419393189260
H          -0.32548365159838    0.14272563535471    2.26708322766605
N           1.66581921681588    1.14484630703714    0.44931284181459
H           1.43960973019836    0.68533864682002    1.35827271677652
H           2.04021995884284    0.44665784163910   -0.20674914285968
H           0.69054777871017    1.48916457760566    0.02360149183959
H           2.30211120884533    1.92535911106387    0.56288430444600
