    26
        -50.45509173  Gyration_radius:  2.70097306435 Dipole_moment: 5.397
 S          -0.47424557181518   -1.53421658072720    2.35379886288968
O           0.29949873252512   -2.44234609321910    1.50024876591418
O          -1.39558156024979   -0.73366943457431    1.57939909435029
O           0.38606022308054   -0.74805984709057    3.22062246540595
O          -1.35076268234306   -2.45898731531394    3.30403920486966
H          -0.70896815224693   -2.86845502057347    3.87829899603699
H           0.73200955894112    0.55831314093233    2.30279608521197
O           0.74180656875164    1.22410709869137    1.57073947217976
H          -0.14633746364023    1.59654568984291    1.58161977775179
O           1.35834706300629    0.71563246281384   -2.88120326817928
H           1.62844767785793    1.19852731545628   -3.66274499501747
O          -1.67501911013634    1.20327677250642   -0.26183787936621
H          -1.69067019985897    0.53656179126305    0.45195445802007
O          -0.97616541158640   -0.51921807207920   -2.44742805361093
H          -1.12753714559490   -1.30307507805004   -2.97620611198940
H          -0.19874411531811   -0.05297605184504   -2.82606890511878
H          -1.92118738292924    0.72259621330057   -1.05880373055202
O           0.62952162596765    2.42706599318696   -1.00715504770715
H          -0.27517322974768    2.12073839918122   -0.78168663143884
H           1.10769302333394    2.43317373481853   -0.17224719523626
H           1.15804216973660    1.40417997816132   -2.19619795063803
N           0.79517862980953   -0.69716360411333   -0.31524025592718
H           0.66076647946643   -1.53144341682357    0.34921539615991
H          -0.01061413263048   -0.65199164491672   -0.96797897316463
H           0.79686870903332    0.14931666078686    0.31528002879813
H           1.65676571651773   -0.74843310156790   -0.85321358958707
