    26
        -50.46433655  Gyration_radius:  2.51815631612 Dipole_moment: 3.782
 S           1.42355519624531    1.57895762921979    0.57365998369431
O           1.00183276524550    0.89522232898107   -0.63600996759582
O           1.78555388269055    0.62865505875190    1.62274825162113
O           0.46820891786204    2.56213925254785    1.03689310387572
O           2.74293341146998    2.36499837638205    0.19512959607108
H           2.83828663734752    2.94674398611714    0.94194194264755
H          -1.11162254813932    2.01435947662014    1.29932485951255
O          -0.76337098408218   -2.30521558828604    0.10060633359407
H          -0.96199851868669   -3.23635981810756   -0.00038777602513
O          -0.35711909059932   -0.69911772928965   -3.39977179169101
H           0.10511260344503    0.06142382578234   -3.75643262742666
O          -1.87901208977258    1.40395324554384    1.37458286553794
H          -2.07072516105827    1.13142856545901    0.45748941704106
O          -1.52338431346420    0.17524378646891   -1.03812905315032
H          -0.61306187974451    0.52747185788535   -0.92800531200184
H          -0.97972623904966   -0.34716612467839   -2.73728997940694
H          -1.49497870429437   -0.72743486792906   -0.68667251932306
O           1.23109309447490   -1.66095845610349   -1.39613540643130
H           0.05974338386760   -2.13000126159153   -0.46021165651009
H           0.77870183997581   -1.52367203969932   -2.25297581147674
H           1.39282639410748   -0.75539391069504   -1.06908676194964
N          -0.42054767312134   -0.60418443157495    2.17347307927869
H          -1.12805074632677    0.17924802169403    1.95654372100404
H          -0.55407720693831   -1.37658319518183    1.48724620971442
H           0.54230018300203   -0.16578152219816    2.01492780702173
H          -0.51247313445604   -0.93797644612231    3.12654149239336
