    26
        -50.45509191  Gyration_radius:  2.70207437091 Dipole_moment: 5.402
 S           1.20724973109877    2.43914820968232    0.84926202135804
O           0.18725415700123    2.22452089704428   -0.15215298426055
O           2.34697365276060    1.53503196301718    0.66077039858601
O           0.70046290730404    2.38744730422315    2.20939722453314
O           1.76849479688567    3.91004310263903    0.63086857013794
H           2.33855717781805    4.04939617813155    1.38248385037610
H          -0.39736035087195    1.17953769343851    2.14481347089323
O          -0.99738231851901    0.46386682464837    1.81750586136166
H          -1.62568781345729    0.92611615360773    1.25253873815605
O          -0.14134034154356   -3.18641472339400   -0.71442289411614
H          -0.48654546497860   -4.05566721103679   -0.91989419070753
O          -1.64852905848614    0.53316970589599   -1.14745474976554
H          -1.05445889321498    1.24334748286943   -0.83623296927606
O           0.29680993788607   -1.15996530183738   -2.40480495680745
H           0.10773367965853   -2.02591524436901   -1.98079805599040
H           1.01374738854055   -1.29369181658229   -3.02543696762519
H          -1.23008749350619    0.18592771022880   -1.94187857714232
O          -2.06772133174159   -1.70843142581786    0.32250491166567
H          -1.95832163628380   -1.36120685834688    1.21313990858295
H          -2.06624234327354   -0.91966080140734   -0.26145075113911
H          -0.88440825022223   -2.70014846832262   -0.27277830141544
N           0.92474247602289   -0.55813063535109    0.23246918073344
H           1.26832309061885   -1.47376990671486    0.51131481991249
H           0.65941665472382   -0.58562840627248   -0.77075519871992
H           0.09387187361714   -0.27533818493664    0.81875034267343
H           1.64444780211021    0.22641577885762    0.38224128833355
