    26
        -50.46305555  Gyration_radius:  2.55467968899 Dipole_moment: 5.319
 S           0.54337248050723    0.81462039000767    0.64263499596935
O          -0.85601493622129    0.69037297633873    0.24944603995182
O           0.96130422606685   -0.33602543583157    1.44957186911322
O           1.41625452336619    1.00825898779171   -0.50559019759820
O           0.66791929108845    2.05231076886003    1.56943202977234
O          -0.19249163678248   -2.71754040729800   -1.63344310827807
H          -0.19146444610066   -2.64438457305323   -2.58889579884975
O           0.81755651004301    3.18043778089749   -1.89834569638066
H           1.06825620858850    2.32493679530353   -1.48745241261065
H           1.62267232372717    3.69914816856222   -1.94064061378173
O          -0.95880493205832    3.38708237403503    0.10266172273426
H          -0.42125014589898    3.52852537255240   -0.70532082923449
H          -1.37032589559966    2.51851994635383   -0.01968342938502
H           0.08162406277810    2.72987897819672    1.12315034967739
O          -2.11601347361992   -1.56548309214351   -0.21480191282505
H          -1.53988687784458   -1.90899769136914    1.06956552841862
H          -1.79521290311471   -0.63584964385795   -0.19652993820307
H          -1.51239329613471   -2.03306217719742   -0.84004007952584
O           2.04802446487385   -1.53953992707489   -0.81101977753713
H           1.89480127724578   -0.57563073973568   -0.87996829588178
H           2.18490666126195   -1.67477030461300    0.13091526116266
H           0.66126768948135   -2.32144108729795   -1.33396826830163
N          -0.91696179476332   -2.00346200669413    1.99074646540634
H          -0.54127079910193   -2.94155873000495    2.08400399756282
H          -1.44249912868896   -1.74245894741841    2.81807998712295
H          -0.11336944316060   -1.29388778535650    1.82549212150918
