    26
        -50.46654159  Gyration_radius:  2.46918036095 Dipole_moment: 5.995
 S          -0.18455511782004    0.46588642190856    1.02383905162199
O          -0.94472035697032    1.28709871740685    0.10446014447155
O           1.19927584987711    0.28787040935911    0.57803085545333
O          -0.16662174530958    1.12193179363214    2.42113390076240
O          -0.81716259545595   -0.84542243287611    1.22803969332583
O           1.48415462301285   -1.21307515173253   -1.58126149468129
H           1.63787649282277   -0.60952367794416   -0.82226287344465
H           0.79421258120686   -2.26841508287612   -0.83861760434041
O          -2.48677011964428   -1.80484307865618   -0.62019432083651
H          -2.02474152079779   -1.35812862682546    0.12114364135070
H          -3.39745858290997   -1.50953853835647   -0.58179165948800
O           1.33880412171678    2.71183345540476   -0.48458447227258
H           0.43214666299406    2.73046124496935   -0.80987753877549
H           1.46429529306454    1.78927888533141   -0.18436733194031
O           1.03296856231942    3.38650739564961    2.03714888308208
H           0.23438937944487    2.02894722080052    2.31504684941992
H           1.90124121859212    3.35942466804765    2.44479362400768
H           1.18265093982749    3.31693907396567    1.05865827106747
O          -0.84953785870974   -0.13629324649525   -2.14052057642962
H          -1.52009358905853   -0.79957201320703   -1.91796909772462
H          -0.90266898940488    0.51288544830676   -1.40985204190040
H           0.71858014136942   -0.79325666449697   -2.04826700654448
N           0.13859515360007   -2.83223995192883   -0.14182079068086
H           0.60555575642422   -3.61512394777355    0.30166552790217
H          -0.71471625319854   -3.12406737512674   -0.61846906309705
H          -0.15570006698909   -2.08956494649019    0.56589541968713
