    26
        -50.45509203  Gyration_radius:  2.70151244134 Dipole_moment: 5.394
 S           2.20927436801590    1.31317320248656    1.23194917231784
O           2.83086102113380    0.51489065999941    0.16969451069467
O           1.10151062273720    0.61369352255193    1.84283338619377
O           1.86599542200576    2.64694341114503    0.77060062005415
O           3.31816281133724    1.49493658861799    2.35610237086384
H           3.96277028328198    2.06816905520901    1.94962370642195
H           0.36030660090216    2.44781506483786    0.16915399558123
O          -0.51606785503646    2.05949437958326   -0.07685605967212
H          -0.94410267495941    1.89363474848139    0.76982352401223
O          -1.55116065932788   -1.75648972342423   -2.27649676078520
H          -2.25123202944253   -2.16273640044707   -2.78819684126122
O          -1.37393590837445   -0.37852411989509    1.51287703907862
H          -0.50477773397142   -0.00732337176703    1.75973571373308
O          -2.55290226340023    0.22981751817211   -0.85429365438811
H          -2.21753202143591    1.12014562846937   -0.99788777081425
H          -1.96903797530115   -0.98397867344410   -1.81598599334601
H          -2.27619012160139   -0.00373480298161    0.05786057820352
O          -0.46909217070192   -2.64445790135853    0.00361419098179
H          -1.22797279356058   -1.32684759768639    1.43382016812348
H           0.05821238491385   -3.43962286378266   -0.07786128500983
H          -0.96308520953776   -2.53019979281695   -0.83799631077868
N           0.61721214824840   -0.24680555934823   -0.88233741034807
H           0.56166986818483   -0.42681212680262   -1.88172734135926
H           1.61397784594726   -0.02215876981173   -0.54795214071425
H           0.04969333867591    0.60441311943949   -0.62276144066113
H           0.26744270156022   -1.07743522524640   -0.36733595676080
