    26
        -50.46305570  Gyration_radius:  2.55472111944 Dipole_moment: 5.319
 S           0.31061204339376   -0.55912307605334    0.98218195805582
O           0.68321294671050   -1.77031596646341    1.87691226327212
O           1.53416107721909    0.23873219860841    0.85511547971321
O          -0.10808353412254   -1.07559548730728   -0.31631704394818
O          -0.75074798283822    0.18990612648169    1.63809795531289
O          -0.44544227399434    2.55087547022991   -1.83978819672312
H          -1.35038199206264    2.84678214005364   -1.94849938927131
O          -2.92759791313323   -1.26016241484614    2.05685841091256
H          -2.19514780385821   -0.63017276701015    1.88321600388615
H          -3.10969941711874   -1.20092496963581    2.99623809066650
O           0.01637093083531    2.56915917933234    0.78155835926557
H          -0.26167923461899    2.60286925178000   -0.87084920011579
H          -0.43672975040837    1.78349488568483    1.14881245469357
H           0.94320270330194    2.39895681050391    0.97179986581162
O           0.25952031448005    0.11674594486627   -2.62601633859602
H           1.61470913370846    0.21578115490793   -2.12300851497568
H          -0.06510983681748   -0.41850102390040   -1.86734981725481
H          -0.08481217855072    1.02721691373097   -2.46349191153296
O          -1.31094788977118   -3.11562240273092    0.98627768592343
H          -2.06569820624755   -2.63350998410731    1.38603668211518
H          -1.11320814669204   -2.63619989733556    0.16788829830472
H          -0.03713570382740   -2.43426197225311    1.67155125889928
N           2.54292644347923    0.28560733708225   -1.50735162009731
H           3.02410799141751    1.16437328846736   -1.66893586918175
H           3.16009901884429   -0.50000136816677   -1.68261990556102
H           2.17349924064070    0.24389058807569   -0.48831693959441
