    26
        -50.45509209  Gyration_radius:  2.70211110098 Dipole_moment: 5.398
 S          -2.63878332872191   -0.77910471445264    0.74755464724507
O          -1.83494976897525    0.31831405051457    1.23639517291975
O          -1.89028902534383   -2.04075378376301    0.75505273275147
O          -3.24191466885878   -0.52042662104476   -0.54813048748549
O          -3.83687345130656   -0.96888858810904    1.77465950782096
H          -4.40233706892794   -1.60759337454812    1.34848933264792
H          -2.06457529301733    0.28580295967845   -1.34384069034618
O          -1.22452551196038    0.76232223845267   -1.55941959672186
H          -1.26327684453872    1.55946263545444   -1.02025266525702
O           0.30276882513955    1.88974640092297    0.80848726540763
H          -0.52247269058286    1.41811803903018    1.03357225801704
O           3.09865161273147   -0.42914465418729   -0.94977834989639
H           3.98095956706572   -0.24752163341934   -1.27456623506169
O           2.18939001251956   -0.14037784850857    1.54892288212428
H           2.73003832279078   -0.21363762373400    0.73168888739924
H           2.54822267552253   -0.75687522085875    2.18781750361363
H           0.96358386432682    1.54302481604372    1.41669086439803
O           1.50385559644986    1.57057447897059   -1.60337423903750
H           1.12997664814671    1.83417052506638   -0.73503818288127
H           2.53347298000859    0.31731705598500   -1.27699460844903
H           0.74046161137620    1.39365283499269   -2.16167693906803
N           0.26151684341663   -1.04892070824421   -0.23137771570205
H           0.86463330374589   -1.62104135487991   -0.81712986721964
H          -0.55856030170268   -1.59880879760469    0.19422341061922
H           0.82544176434818   -0.63548871063291    0.53583424502605
H          -0.19441567362357   -0.28392240113930   -0.79780915287995
