    26
        -50.45391471  Gyration_radius:  2.54494596989 Dipole_moment: 4.396
 S           1.31833699292905    1.07085993372371    1.77023713713702
O           1.51817726245828    1.47997629016228    0.36576118292041
O           2.18807119915863   -0.01649666902957    2.11856406758607
O          -0.08802052912606    0.81023391877562    2.03113601684119
O           1.70687125719380    2.33034440674783    2.65351149882273
H           0.95822599838444    2.91732365715024    2.57791400850403
H          -0.16776400696151   -0.73564457709528    1.68003745451910
O          -0.00003231207412   -1.68255132240255    1.41168629971412
H           0.43246021000106   -2.07199863551302    2.17511155050480
O          -0.09814625330523   -0.70503368420713   -2.48070855253968
H          -0.08372884685201   -0.62134699781760   -3.43425420118873
O          -2.86465911079958    0.88632302373551   -0.29758102235892
H          -3.69231080220714    0.97687582636859   -0.77141610947697
O          -0.51897109246087    1.59193277384986   -1.42086332728226
H           0.17593698786921    1.68943847089913   -0.74346460717262
H          -0.29681885697727    0.22493139262935   -2.11901898472153
H          -1.36434008897831    1.48644673546177   -0.93402377833167
O          -1.99301655598919   -1.65439450043682   -0.59239066512129
H          -1.43650868086642   -1.81176051223704    0.18165961889019
H          -2.64842789620268   -0.07171765280890   -0.29829194393318
H          -1.38900116162694   -1.48408661771320   -1.32996229711612
N           1.69246956185912   -0.94566761112515   -0.53026702803315
H           1.14960127085545   -0.99394488323145   -1.42454533320133
H           1.77090365659157    0.08122940488123   -0.24195619258593
H           1.11936084497456   -1.38091588156910    0.24216391300965
H           2.61133096214137   -1.37035627919524   -0.58903872537857
