    26
        -50.45683611  Gyration_radius:  2.52360731918 Dipole_moment: 8.058
 S          -1.42093605251496    1.56151734054043    0.83965425309773
O          -1.19478347455453    2.08710511915735   -0.51275837698302
O          -0.22740069507451    0.98901613807008    1.40215157929425
O          -2.56680316203825    0.66496399972492    0.86206116197290
O          -1.81048988142171    2.80789855800798    1.73093931169815
H          -2.66029722444449    3.04936806816171    1.37696854489961
H          -2.11399726506527   -0.71138049833941    0.25121252453306
O          -1.81635690989047   -1.51401926828395   -0.26258203159242
H          -2.50539120981949   -2.17161975710831   -0.15230352615090
O           1.96476600679736   -0.47534336678147   -1.57503532900498
H           2.73136481955051   -0.36807247239978   -2.13867899326935
O           1.75569535205068   -0.86916402507542    2.34451437391200
H           0.97032417683954   -0.31319293947426    2.41983857821322
O           0.83417126394240   -2.38702510177910    0.23617096620762
H          -0.09290071139023   -2.11592132136438    0.17494022947649
H           1.30826748068878   -1.89503536748225   -0.44661675054423
H           1.49908345580884   -1.58430629442099    1.73308620407923
O           2.29193874593490    0.97899009773145    0.49528551873885
H           2.46017983762140    0.32180143178854    1.20800550156524
H           2.13447989966063    0.11312482278011   -0.75738389997852
H           1.38730240420362    1.27150012655954    0.71287549994292
N          -0.58508350191043    0.10543789930308   -2.01893280364045
H           0.44908427595768   -0.09308162341960   -1.95080480077469
H          -1.10224318915651   -0.66281646993697   -1.54591657233473
H          -0.80916424806435    0.99652650419376   -1.44372716531593
H          -0.88081018368102    0.21372839986618   -2.98296401780871
