    26
        -50.45288147  Gyration_radius:  2.71817617923 Dipole_moment: 5.381
 S          -0.22070871222573    1.01331038364965   -2.67891921231255
O          -1.63555215970603    0.95570532009873   -2.89082493872178
O           0.43927314496129   -0.29670868754459   -2.69684724285612
O           0.14100352455787    1.73253726523345   -1.44795690155473
O           0.42295777921122    1.83482554092632   -3.87468355919680
H           1.36262963887771    1.74839905186014   -3.73908532275668
H          -1.30088345556186    1.49070189791851   -0.57838098420024
O          -2.07757438212850    1.00011696505596   -0.22619348504442
H          -2.66958299558446    0.97691750839724   -0.98673424050398
O           1.33296846919790    0.81391618478781    0.76212397000186
H           1.08415652560438    1.32088725930864   -0.03692724682891
O          -0.37594955120698   -2.01715752401112    2.25866480586450
H          -0.55613673355368   -2.43173888810262    3.10321135909682
O          -0.84392859442489    0.77297726028600    2.31716560830891
H          -1.52248078036106    1.00408311952203    1.67109446744552
H          -0.84991914004912   -0.19583293963192    2.38868585077295
H           0.66484762055367    1.05030108657021    1.44431465052119
O           2.27077849828710   -1.51133801058314    1.85202986091560
H           2.98999002418384   -1.88989482915906    1.34511655945833
H           2.17812883234670   -0.58866054264136    1.55944860831012
H           0.59482690986939   -1.91867206781088    2.20703237388899
N          -0.29379191988559   -1.01713083164529   -0.34652406559506
H          -1.16779069756765   -0.45167603763329   -0.24193699695735
H           0.00217880426570   -0.93606282338964   -1.37153404403495
H           0.44562620884370   -0.49900857845019    0.19558826075286
H          -0.41506684849864   -1.96079708306082    0.01207188520941
