    26
        -50.45730946  Gyration_radius:  2.4493010783 Dipole_moment: 7.989
 S          -0.15418149695879   -1.56657078059687    1.83987885749596
O           0.19165960586916   -2.59721213235196    2.75282926099130
O           0.24460984835885   -1.88265045210084    0.43341095158313
O           0.29601125362905   -0.22342391147856    2.17886215425669
O          -1.73657752410753   -1.45135744990627    1.75193466113242
H          -1.86061079338757   -0.52576129656691    1.48139330788511
H           1.41223373152066    0.65090654717456    1.53602277647654
O           0.52926166190524    0.48691918197039   -2.51538892285647
H           0.89628470039106    0.52209420011252   -3.39886521234394
O           2.06936582572352    1.24704721974755    1.07530779455460
H           2.59776113529986    1.63907790722252    1.77120751957736
O          -2.12190774874718    0.96774016611419    0.58502770222312
H          -2.62867204574880    1.55928328797723    1.14219375794787
O          -0.03098985023283    2.21134833922274   -0.36007080514169
H           0.74717314121652    2.00638886916119    0.19330353421403
H           0.15095035279605    1.80084522979876   -1.21815772614733
H          -1.30613354201037    1.47932494956610    0.30909020903895
O           2.19153267554240   -0.62561921229286   -0.89670284673491
H           2.40903143326216    0.07024756409864   -0.25258039060880
H           1.60608036544655   -1.23635437098130   -0.40244494996014
H           1.23782586199106    0.05808369902040   -1.93142222182928
N          -1.37809732947305   -0.91953399453124   -1.24216812343764
H          -0.68892176797638   -1.40187153535718   -0.50507091665616
H          -0.76980382312944   -0.39447325104237   -1.90761738340559
H          -1.94551231706040   -1.61639477591007   -1.71055824680292
H          -1.95837336412007   -0.25808399807109   -0.70941471145215
