    26
        -50.45730947  Gyration_radius:  2.44929699249 Dipole_moment: 7.988
 S          -0.66073756212448    0.47001987926455    2.28155553738233
O          -1.26100539724870    1.05544129390862    1.04296406362904
O          -1.00543820450836    1.19393717199184    3.45306446009311
O           0.75926019116331    0.23042707657854    2.06286239238424
O          -1.30853724665355   -0.97935725019493    2.34951852192738
H          -0.71159158555694   -1.49807984189957    1.78391189347623
H           1.73192042690952    0.85716392714680    1.02133814696970
O           0.05363946194742   -2.36084234910525    0.45274447191738
H           0.51452888699510   -3.11612091701590    0.81920389686279
O          -0.29995982748489    0.40018273935520   -2.56797681680135
H          -0.43471112173088    0.76362630977302   -3.44333502562855
O           2.34030875623215    1.19369118353671    0.30295584932310
H           3.15407556104433    1.43861807820860    0.74452021966690
O           0.14013671765395    2.28442526168971   -0.87183894003612
H           1.04258336938292    2.11745940264179   -0.54911302255532
H          -0.11482602349702    1.18907565369951   -1.95939358409458
H          -0.43555357825174    2.01608485219831   -0.12577779666589
O           1.65130127249341   -1.02188363148794   -1.11771564337142
H           2.03845541495993   -0.27238824819607   -0.62564222885363
H           0.73285234747356   -1.85627445798341   -0.08338169434830
H           1.08057232573240   -0.61906913068576   -1.78849143078111
N          -1.82615923427248   -0.72142215806264   -0.65748645704323
H          -2.82098098424506   -0.87474998799928   -0.77490203249881
H          -1.37341735003005   -0.38288788084592   -1.53438481466055
H          -1.63626772250971    0.06539886989733    0.11445158988126
H          -1.35044888387509   -1.57247587641053   -0.32965156617273
