    26
        -50.45288173  Gyration_radius:  2.71811204827 Dipole_moment: 5.394
 S           1.88663511761541    1.73609170739476    1.29578532705804
O           1.24681222747497    1.96380876956339    2.55634610760840
O           1.25747968156586    2.43816395499648    0.17178425553547
O           2.01807722150085    0.30672330328075    0.97532535538882
O           3.36515386404962    2.30632624589409    1.38443700137694
H           3.69929811852332    2.23072418218616    0.49477477229058
H           0.72408622645825   -0.28373486576822    1.90852734357003
O          -2.72243490338313   -0.84163054572741   -1.09356059517535
H          -3.50951617866714   -1.33629801792770   -1.32460783887772
O           0.89921837310214   -1.09527080613885   -1.00739307901477
H           1.52193044295614   -0.68341924701268   -0.37482859171814
O          -0.18330238452460   -0.31195999461287    2.28766142163636
H          -0.13684777648387    0.35293901551533    2.98424961984730
O          -0.85755371430686   -0.79468657242056   -3.08083763492638
H          -0.08847878348418   -1.03579343616884   -2.53690225097242
H          -2.14851511805912   -0.86089192438556   -1.88397319321130
H          -0.54397682877302   -0.17677956627699   -3.74221235890156
O          -0.92860729980462   -2.36427022883582    0.47832655099796
H          -1.67711313343899   -1.91148646925027    0.05592486447066
H           0.42511130118056   -1.79030846209766   -0.49761828750986
H          -0.79119416909024   -1.93053111296883    1.32935466417002
N          -0.72945368193778    0.83660833324893   -0.08889250067205
H          -1.64949752695252    1.03492372818828   -0.47356671199256
H          -0.04562930121003    1.65876903688724   -0.05345038394382
H          -0.79389056957058    0.45909459330723    0.88472007907305
H          -0.23779120489994    0.09288838898975   -0.64937394610194
