    26
        -50.45212748  Gyration_radius:  2.45309711815 Dipole_moment: 5.988
 S          -1.81877630261184    1.35768942030336    0.39794544618064
O          -2.27982123956837    2.42478511561275    1.20943958962936
O          -1.53477161043120    0.12055533775425    1.09651837668880
O          -0.53640282788159    1.76985932782439   -0.37959130432094
O          -2.77742051640388    1.07504695440971   -0.76381710771073
H          -2.25602321921511    0.45451602239756   -1.36501470780576
H           0.22800347586231    1.92133192435312    0.26719437154142
O           1.60544626175981   -2.00174036826719    0.33863585882462
H           2.37518918594877   -2.56401238808065    0.24889087844177
O           1.36275187790324    2.01548385434112    1.30590256076292
H           1.11660865822363    2.68051692082932    1.95214823147719
O          -1.38356209691755   -0.56835575757808   -2.15478353262822
H          -1.92608815359979   -0.97177994182678   -2.83564457581116
O           0.81931739228936   -0.28797253012274    2.34963632586092
H          -0.12036312062576   -0.21890329283089    2.10319696285438
H           1.17797278278320   -0.99051265781746    1.77878814777017
H           1.27380040612487    1.12791986436241    1.77085175881731
O          -1.08588903292815   -2.20389693381637   -0.17610010755357
H          -1.23535728560600   -1.27871097858510   -1.45661828133156
H          -0.14102774283192   -2.32833093474598    0.02169565348739
H          -1.38152616515179   -1.50984739905231    0.44079743811136
N           1.73286419808462    0.06715581252789   -1.32138436789816
H           0.76785820864345    0.23385214832585   -1.59023530886433
H           1.70525431030023   -1.25114627290702   -0.31796774596532
H           2.29256458503816    0.06849996176441   -2.16515190500812
H           2.01939799081108    0.85799680082424   -0.75533265554969
