    26
        -50.45288163  Gyration_radius:  2.71811835399 Dipole_moment: 5.392
 S           1.96883586460049   -0.80910145820458    1.92922175720487
O           1.67066449074780   -1.92636473272415    1.02648211444712
O           1.20012209365943   -0.81524147602155    3.13721205286509
O           1.86434453212113    0.46126787562823    1.19543253740672
O           3.49905978558673   -0.96891861938763    2.31891426303134
H           3.94461761465950   -1.06903008735075    1.48205875947867
H           0.35146570250844    0.97108625210051    1.78327455982510
O          -0.59105290942613    0.89209571007436    2.05400526641662
H          -0.52239640755774    0.48085653714454    2.92327884082501
O           0.81024385542050    0.94555876877854   -1.21357189796174
H           1.39683060561096    0.88619762765125   -0.43266040862369
O          -2.63330657276239   -0.16145300685935   -1.53480822441874
H          -3.45712448629334    0.04954200283596   -1.97573527090865
O          -0.51217402301266   -0.32997648208651   -3.23831833632603
H          -1.95961985223451   -0.23223061209167   -2.23880455027896
H           0.10124954197084    0.22778814357667   -2.73027892860332
H           0.01484654290348   -1.01845045555101   -3.64550496036066
O          -1.43801684497259    2.11769888149337   -0.35878260196498
H           0.13600423093091    1.62510085326211   -0.98710435268794
H          -2.00864173854871    1.40225995876097   -0.68475785847777
H          -1.35075780121804    1.98587443634017    0.59318518817910
N          -0.52809040460356   -0.97421921616086    0.11023294154652
H          -0.81477449046116   -0.36358306792913    0.90995636531538
H          -1.32065532574041   -1.48241142727315   -0.27362248038963
H          -0.11217028280094   -0.32515698056545   -0.60719033816191
H           0.29049630805974   -1.56918944558993    0.45788556276188
