    26
        -50.46163594  Gyration_radius:  2.55715603283 Dipole_moment: 2.227
 S           1.14106189936194    1.89173881215500    0.73976324412065
O           1.82040434229756    1.12552215088423   -0.27876037875742
O           0.63002451606460    1.01316023470804    1.79081981060768
O           0.12443419547629    2.80135215926863    0.24535583682914
O           2.23805674919897    2.81945781293273    1.42338985600094
H           1.70811403711966    3.52609460441410    1.77844106680759
H          -1.04466649507800    1.93063869633689   -0.41504096619951
O          -1.37534198795769   -2.13167119699184    1.98892390137934
H          -1.61278967562944   -1.41575727151959    2.58208440790388
O           0.45491814913216   -1.82101907267660   -1.60978834093973
H           0.97762070327889   -2.36219362653519   -2.20205940138878
O          -1.71702872340585    1.38741021500152   -0.90102567405381
H          -2.46074111570295    1.97017305547884   -1.06316950957375
O           0.42903939948667    0.61274544930282   -2.46517656619436
H           1.05897151312505    0.92545114769267   -1.78192497470070
H           0.44926189435819   -0.89680358280892   -2.01206890423916
H          -0.43476493165495    0.94110312865935   -2.16762495552448
O          -2.06073539619164   -1.31729656123854   -0.42727398237412
H          -1.34082383662911   -1.66464125166104   -0.97153385738277
H          -1.79004132569997   -1.90782519004654    1.11690243082735
H          -2.01654614595885   -0.35109839250151   -0.52984811150855
N           0.98796999649176   -1.43244742772218    1.02876363719130
H           0.14063186430591   -1.87795489013454    1.48272603411520
H           0.90187879237904   -1.53624158254617   -0.00787584552992
H           0.93246297191229   -0.39739909914980    1.29671883874076
H           1.85862861993330   -1.83249830134329    1.35928242385329
