    26
        -50.45730947  Gyration_radius:  2.44929819637 Dipole_moment: 7.988
 S          -0.26207552469203    1.44381962615111   -1.92608170798998
O           0.04719779464482    2.17358187636765   -3.10383760674063
O           0.82076931137809    1.52124910276693   -0.89721511926060
O          -0.65410871321356    0.05314491692655   -2.11034688697926
O          -1.50305930360378    2.11978439398081   -1.19942121759645
H          -1.88361190353810    1.37362388728882   -0.70573152993478
H           0.11997666864022   -1.25749356343405   -1.78369690740199
O          -2.33786408266968    0.19912098513173    0.52577722136590
H          -3.24259493207819   -0.06662907473329    0.35848780561154
O           0.57692962065058   -2.10021044109967   -1.50003808066537
H           0.50206709918441   -2.69980133042014   -2.24305254169195
O           1.33171709442544   -0.68843723966125    2.14403216402492
H           1.99979429628271   -0.90071709397684    2.79605528335792
O           2.38233159096655   -0.53181596196339   -0.19958666143423
H           1.80752097656876   -0.66139927125510    1.24967073179396
H           1.95572207975913   -1.24373433456118   -0.70714897982694
H           1.97241961445940    0.28849554832040   -0.54468192355083
O          -0.83198169185768   -1.91215135003219    0.81977815969726
H          -0.12360552693982   -1.64525869503134    1.42385394117084
H          -1.80375699727668   -0.64744662262739    0.56343391861227
H          -0.38661252759281   -2.11447026194366   -0.02548719296974
N          -0.10781762756202    1.47526922141529    1.44880444932456
H           0.30725294193483    1.55864351624102    0.41353994104441
H           0.43468771320951    0.71812689713065    1.91887940793737
H          -0.03201892684315    2.36009826243777    1.93696791055843
H          -1.08927904423819    1.18460701658075    1.34704543154562
