    26
        -50.45514052  Gyration_radius:  2.75142885592 Dipole_moment: 5.666
 S           2.27365435156013    1.80144028756763   -0.06455070609716
O           1.93396186701858    1.63896086243571    1.35485023454389
O           1.12421825767207    2.10636370120412   -0.87790245201171
O           3.04382128128030    0.66158351814676   -0.54311469914464
O           3.24256487799009    3.05631288770557   -0.13345512623731
H           3.97686260276383    2.77865013536510    0.40598449350988
H           2.22179263251557   -0.68181422054185   -0.59242660360381
O           1.68939129936755   -1.52218743530735   -0.49864706712856
H           2.33260840874159   -2.23097599629821   -0.45332577511562
O          -1.98202362880087   -2.08350235664286    0.74390868556979
H          -2.55914981109587   -2.84475265809730    0.80966108037901
O          -1.26220272836970    1.01479289457323   -0.82441911739966
H          -0.47015800068747    1.57564707778696   -0.97248810965368
O          -0.81667514841157   -1.45296892040544   -1.72184844165797
H           0.13713735494109   -1.52641172661201   -1.57200442557300
H          -1.22871906755596   -1.84353976639951   -0.93228470525074
H          -1.14854544890342    0.22680677046166   -1.40568167717312
O          -3.42068883778910    0.20491030585071    0.58966319529552
H          -2.74702407436255    0.70410035449614    0.09127534618526
H          -4.22959505861214    0.27046186461731    0.07994360631311
H          -2.56292238225462   -1.29314618875465    0.75502735842861
N           0.07665205962796   -0.12619954895749    1.18223531595902
H          -0.58728352163522    0.32094123240561    0.48941426636010
H           0.57529944332603   -0.88995421792423    0.68732603068738
H           0.81400360545248    0.61828410244432    1.41526725765020
H          -0.42698036377605   -0.48380295914980    1.98759203517740
