    26
        -50.45514047  Gyration_radius:  2.75122944787 Dipole_moment: 5.668
 S           2.20332337041425   -0.51459871684731    1.81589090105656
O           2.25840090753394    0.65166027897434    0.97182239718196
O           2.01677370170970   -1.75540508063033    1.05309728720903
O           1.22141793175285   -0.41654542841577    2.88722757382611
O           3.61938861067993   -0.65123947961420    2.51903763822855
H           3.50263415577888   -1.42101232645760    3.06772395862068
H          -0.25600200879116   -0.22516187981946    2.37425042476910
O          -1.18036561481669   -0.21650186662363    1.99473710471056
H          -1.75033845377558   -0.53231309420581    2.69727794071616
O           0.72940028827629    1.27849086070548   -1.06761185699388
H           1.42817523633726    1.21111877724232   -0.38133185304697
O          -2.40712930115062   -0.24349402385972   -1.72432700396530
H          -3.26318780553910   -0.18459630647657   -2.14928777853940
O          -0.44182828448288    0.56910164739905   -3.40013336948789
H          -0.54481094668106    1.31414099270409   -3.99400018983719
H           0.16323371943724    0.86743867330126   -2.69564931933099
H          -1.74306567461712    0.00382270605160   -2.40255815289775
O          -1.62932258421805    1.75576030966342    0.07359103392239
H          -0.03744480943359    1.71776253395209   -0.63088116123130
H          -2.07066339031099    1.11116215420342   -0.50559590575494
H          -1.51318766542675    1.29819697288071    0.91900857095398
N          -0.07668566474977   -1.14842631984177   -0.30481141766173
H           0.21494349151313   -0.24021690601025   -0.76394272928333
H           0.80196820959631   -1.54035899069521    0.17128275667793
H          -0.74318974609705   -0.91338136234045    0.45509072630247
H          -0.50243767292068   -1.77540409530510   -0.97990756613617
