    26
        -50.45514045  Gyration_radius:  2.75131710714 Dipole_moment: 5.663
 S           2.22936716403836    1.76506070130127   -0.57712767093011
O           1.37730761294929    1.34441867135687   -1.66007635932174
O           2.79917900716746    0.63326898527990    0.16494101477543
O           1.59701364833646    2.71074946138310    0.33247733513966
O           3.46572175434146    2.52318785221415   -1.22129413872540
H           3.96676534689143    2.78723482117359   -0.45540955384601
H           0.30591203090534    2.14203090438058    1.03448050051456
O          -0.43705566114635    1.69588764904938    1.53184790245102
H          -0.54816078009244    2.20222918777600    2.33770035650257
O          -0.45992223644293   -0.53036307729619   -1.67829364973563
H           0.19979100315706    0.16392229365678   -1.89371916523958
O          -1.86532870784638   -1.93822772120401    1.25894654965311
H          -2.59717491418842   -2.40365699782632    1.66474241571113
O          -2.34797959791332    0.46776736161907   -0.08680161492957
H          -2.33300103883499   -0.32618328922320    0.47462641855662
H          -1.83708783365961    1.13110448976915    0.39962801850529
H          -1.25144773831446   -0.05393351082749   -1.33448971980683
O          -1.20003032209885   -3.06885181708895   -1.10938636681008
H          -1.63859365577379   -2.43452370787714    0.44380251230097
H          -1.85695237762095   -3.39876562092280   -1.72418665505740
H          -0.84583335483323   -2.25132458708882   -1.50636415915962
N           0.65739519343222   -0.66083089336463    0.74204424122268
H           0.20704690690484   -0.77681964049729   -0.20884815116041
H           1.63300793129726   -0.24951036235197    0.56472491277309
H           0.12085155852272    0.06469827137719    1.25441889619128
H           0.65920906082632   -1.53856942478540    1.25161611043827
