    26
        -50.45514055  Gyration_radius:  2.75163475803 Dipole_moment: 5.663
 S           2.40197249131471    1.49374443099111    0.64771593900628
O           2.18043347107443    1.09448924239952   -0.71874849264467
O           2.37499599693584    0.35860296535724    1.57889334006394
O           1.50987943376987    2.55226460174137    1.10080348967958
O           3.87303367061713    2.08311763502776    0.73089697481292
H           3.93909504661737    2.34147700308006    1.64531583076842
H          -0.01508619329656    2.15936414912720    1.04343154848038
O          -0.95421418242579    1.82135655672952    1.09048971681301
H          -1.39953056499305    2.38547461969458    1.72421406987135
O           0.40124259695285   -0.58215590801945   -1.67459852011611
H           1.15530386452991    0.02747949676901   -1.52150989057149
O          -2.45757513541963   -1.66311069879310    0.12340501564050
H          -3.34270451635091   -2.02745821217977    0.09723537388244
O          -1.90236564693924    0.69498692616008   -1.27846546275850
H          -1.63746962502550    1.33158290721264   -0.59858773481802
H          -0.39236580924284   -0.00824381104734   -1.78623131360638
H          -2.26839599662119   -0.06152625860915   -0.78911272810703
O          -0.81874740782464   -2.99379005963763   -1.57163466664697
H          -1.10482576233650   -3.28887784738564   -2.43732159604409
H          -0.21765069762722   -2.24178113358507   -1.72829467147464
H          -1.90787042212801   -2.22732365755938   -0.46115871851368
N           0.10401630329863   -0.67730513057954    0.97588030679855
H           0.19119997409859   -0.80505116856308   -0.07130386177291
H           1.07417390389033   -0.37726736536187    1.32421604295789
H          -0.52931569897005    0.12814044219835    1.13983301070291
H          -0.25722909384513   -1.51818969519043    1.41463700755879
