    26
        -50.45514042  Gyration_radius:  2.75121633883 Dipole_moment: 5.665
 S          -2.36605759105775   -0.44941873576672    1.61792229323014
O          -2.41725928926330    0.53999064038464    0.57188905063346
O          -1.27289411082209   -0.20963161318548    2.56857398045158
O          -2.32926905665725   -1.82011569842216    1.12670796085955
O          -3.70492965537123   -0.31180594259490    2.45867551922112
H          -3.61120275997986   -1.00159601551655    3.10880916087441
H          -1.07891836649288   -2.13053598045473    0.21911281888880
O          -0.44609403747013    1.55417377970762   -0.83402989999006
H          -1.30010324496951    1.34346172972717   -0.39817027859181
O          -0.21640648868371   -2.30249339067068   -0.25507524511796
H          -0.08221223724683   -3.25020251023491   -0.21044920759785
O           2.77853901770868    0.08967067305102   -1.04616227121371
H           3.59780589951647    0.00063391502339   -1.53375588015793
O           0.35611389087893   -0.50992820341542   -2.31383777448407
H          -0.01394060652859   -1.24647410956935   -1.80568612975217
H          -0.34299800255902    0.89495919658774   -1.55966273556277
H           1.27080909502535   -0.41714579466956   -1.99693452196196
O           2.01051333643391    2.68276333399016   -0.91827342079056
H           1.05639687442235    2.49362137540521   -0.84561542149789
H           2.59462651566628    1.05130299474608   -0.98589619198208
H           2.10546385812999    3.28535395007328   -1.65730713958966
N           0.71547635761637   -0.05453392827514    0.95086694953819
H           0.38683087437526    0.68443880418094    0.26793180632816
H          -0.00771684420540   -0.07429363598217    1.74399767121793
H           0.65148474358105   -0.97251115087702    0.47126616504441
H           1.66594183792790    0.13031633677211    1.25510274199585
