    26
        -50.45966332  Gyration_radius:  2.59352875348 Dipole_moment: 3.957
 S          -1.14759249522757   -1.93038971913905   -0.93222447116560
O          -1.89321310732009   -0.70939022327323   -1.23365438430576
O          -0.77197932719749   -1.97828427055291    0.46185368316402
O          -0.05204519931189   -2.14614365687409   -1.85829149527627
O          -2.15729621839897   -3.13604178626147   -1.17190266654859
H          -2.20300423848287   -3.17469688061091   -2.12217337857028
H           1.07714798663422   -1.01840597882643   -1.70553726822982
O           1.81955222616694   -0.38236415603440   -1.53889943095702
H           2.38237881169781   -0.42784762571635   -2.31333719651133
O           0.76270335818204    0.48119347297424    2.14830653067954
H           0.76420920564894    0.31540936892347    3.09155934920918
O          -0.78921042484771    3.23029925531492   -0.18025314242003
H          -0.66141329176056    4.05061642635864    0.29797624792677
O           1.52357095867286    1.97212844644901   -0.13016083204821
H           0.11473822439686    2.84592850780716   -0.31456828625945
H           1.45707472836533    1.58846062473527    0.75493435104498
H           1.62177972740344    1.21195666507825   -0.72932160283244
O           1.78509772308625   -1.57305951809735    0.96618589715449
H           1.21035774177169   -0.32163144886780    1.73438826348003
H           0.89255016308666   -1.94300745392742    0.79888669523083
H           2.07427715485067   -1.22901557644141    0.10622011668084
N          -1.57135683830740    0.85908259474326    0.79029692554864
H          -1.70625053700187    0.20100708700298   -0.05013522851010
H          -1.41864359285887    1.83153513175604    0.42328338111966
H          -2.39425787517015    0.81014285777814    1.38100860517605
H          -0.71917485407480    0.57251785570486    1.32555932721979
