    26
        -50.46305565  Gyration_radius:  2.55442192665 Dipole_moment: 5.318
 S           0.58883171228762    0.52379404944722    0.86727943013639
O           0.88047197312056    0.43298718784689   -0.55923692294611
O          -0.68506369369560    1.21299337780779    1.09518886999730
O           0.61423707520627   -0.78048202258049    1.51224495495281
O           1.67805274526088    1.41578122868306    1.51860175659466
O          -2.43933931754912   -1.58490121522549   -1.27031842847167
H          -2.30291488367725   -2.51855365801878   -1.43766383611754
O           2.95656741448552   -1.99610679138525    1.28342260015994
H           3.23600896881499   -2.20459401801789    2.17649503785734
H           2.03939321444183   -1.65483720188947    1.35988467761158
O           3.50546900424721    0.33763164152461    0.07704760700124
H           3.54897548762813   -0.56434859077074    0.45964550652386
H           2.79386882754283    0.29668964911909   -0.57919034708568
H           2.51942688853930    1.10976708774398    1.07103636456658
O          -1.98183060618808   -1.23757442756711    1.32858656137865
H          -1.01030476191707   -1.26265381681557    1.44252124533931
H          -2.21406471844912   -0.34694416250123    1.60615574286988
H          -2.31473361630002   -1.46664320624170   -0.29774382223303
O          -0.90651924436728    0.21812596161454   -2.47036491625028
H          -1.47652295589841   -0.52511664785446   -2.15967272355155
H          -1.48404973298690    1.34850310517946   -1.77154534368929
H          -0.10377582021352    0.17923163473404   -1.90330579178306
N          -1.81025746293346    2.11656932813487   -1.03051364187352
H          -2.81943865306685    2.11668561710442   -0.92364401086075
H          -1.47536532118079    3.03928095092599   -1.28588842535904
H          -1.33712253315962    1.79471492896358   -0.10902212477131
