    26
        -50.45514050  Gyration_radius:  2.75125416294 Dipole_moment: 5.667
 S           2.49424504216254    1.14581635275991    0.93958759931221
O           2.02761461848389    1.48804001331546   -0.37982636315209
O           2.62285174569001   -0.30390652424469    1.13465365264914
O           1.70858254484384    1.74153785237828    2.01167844867243
O           3.96241541502000    1.73074698550926    1.08347129076443
H           4.19484571061501    1.48525661720862    1.97396584984180
H           0.19302210575225    1.31030426368940    1.99964493383729
O          -0.72659450618283    0.91962430478636    2.01159119745541
H          -1.04571270988064    1.03933954215193    2.90713336780237
O           0.08949165559514    0.39502344569986   -1.77220050930090
H           0.86490357586062    0.90107748137345   -1.44594891012580
O          -2.41460935918434   -1.68959175169928   -0.37118679765696
H          -3.29406671600087   -2.06129900200953   -0.44394205991398
O          -1.11220404503074   -1.82603870758205   -2.74097316599156
H          -1.98210159006099   -1.82782741219615   -1.24066171685029
H          -1.54826990763300   -1.66376874246532   -3.57874066098620
H          -0.54322707671791   -1.05061089308435   -2.57859363963293
O          -2.09352224607377    1.09072707428932   -0.41401462889384
H          -0.70558898420018    0.87615627984393   -1.44350892807926
H          -2.37434973408928    0.16282767917876   -0.33749218847827
H          -1.70516479297110    1.30916011293627    0.44568307799508
N           0.26827647325089   -1.06878571821450    0.45199453950940
H          -0.01847760493785   -2.04232295013748    0.44099434790327
H           0.16591674918405   -0.63386858635938   -0.50770295607443
H          -0.31664639004453   -0.51711359962094    1.10798119839252
H           1.28837004657760   -0.91050412745844    0.74641303100195
