    26
        -50.44781888  Gyration_radius:  2.50182785515 Dipole_moment: 4.200
 S          -1.48252276494708    1.30953607357647    0.14440343988392
O          -0.09444836389082    1.72145998419922    0.36739058751444
O          -1.62110053929120   -0.13461894098657    0.21317422199450
O          -2.07301009042255    1.89049311326194   -1.03259184883646
O          -2.27435035176813    1.90435637443048    1.38799842646388
H          -3.17130631209746    1.95409687638087    1.07300677707868
H          -0.70908851013021    2.39528827578191   -2.03509853105636
O           1.71309084882028   -1.50119019211586   -0.64718394827454
H           2.54602434291274   -1.53212337458122   -1.11976707198524
O           0.64021918754559   -1.23637652355184    3.06079806614614
H           1.20553914450119   -1.85294835445000    3.52898185981050
O           0.22013820868639    2.43918487837175   -2.32484625630344
H           0.70003808307124    2.67789350205535   -1.52701380556766
O           1.64818545097497    0.20165836757459    1.22606879700560
H           1.72054004398739   -0.50167344544465    0.46325414499402
H           0.89662806765128    0.87903774453199    0.90371030745506
H           1.27078866351687   -0.29538495060160    2.04434936131236
O          -0.46339697416701   -2.40187474706770    1.01730526900897
H           0.24693866231904   -2.43531099032957    0.36448375230519
H           0.10853743680725   -1.76899860299436    2.40283278169407
H          -1.03276919613557   -1.65837888393775    0.73719820078010
N          -0.03755830682468   -0.38880494850775   -2.12676008180231
H          -0.81070306308919   -0.30304411375195   -1.46911543269024
H           0.22363357409061    0.56668654447438   -2.38682894700162
H           1.01095373170049   -1.07526955334637   -1.30816165384708
H          -0.38100097382798   -0.85369412297531   -2.95758840608764
