    26
        -50.44778649  Gyration_radius:  2.50298204027 Dipole_moment: 3.929
 S           0.04915693670964    1.31132388810486    1.49656475741439
O          -0.90322471192778    0.18793807796824    1.54884196098622
O           0.54851351454584    1.49876987021479    0.15308350636618
O           1.05718715872161    1.21277532166107    2.52021537003030
O          -0.80213631718351    2.60618782617295    1.84596879883227
H          -0.60730015626758    2.73879039919797    2.76810595635810
H           1.15192371489374   -0.50555635073516    2.91759320932570
O           0.97479359169698   -1.45796588266012    2.81543258958073
H           0.02500819583077   -1.50061503847613    2.67229789381914
O           0.37639689446464   -1.67084910877486   -1.62528768521626
H           0.42866710307790   -2.62241745501372   -1.72486620219140
O          -2.40657375920110    0.96577162261575   -2.14496755404244
H          -2.83044237805173    0.72300156917395   -2.96980500693452
O           0.17268665145587    1.07647339037501   -2.46311808087974
H           0.39391813926673    1.39705459452216   -1.56819340574640
H           0.43566216397737    0.14738119939214   -2.46796921024446
H          -1.45186345742734    1.17060608780252   -2.35678334392792
O          -1.75520194645737   -0.86438709835822   -0.50624742310687
H          -1.41822514942601   -0.38961030113473    0.39135235099593
H          -2.12218794437058   -0.12190664442466   -1.11547079995622
H          -0.90111359160054   -1.22434257306544   -0.97011587852586
N           1.99489619327006   -0.94211319881884    0.20749533718407
H           2.99746001048504   -1.00535186421934    0.08543430535036
H           1.75897847378541   -1.36495289084492    1.10932888906662
H           1.74484200185270    0.04238055018941    0.28048844361501
H           1.08817863787369   -1.40838599086065   -0.89937875814054
