    26
        -50.46305560  Gyration_radius:  2.55526857633 Dipole_moment: 5.335
 S           0.97300563866020    0.49614572292993    0.42573531739501
O           2.22389017939796    0.63482486963855    1.33260094791818
O           1.48229260252362    0.27342174441585   -0.93104428456968
O           0.21149319389560   -0.65850107845035    0.88940040404649
O           0.20169630613183    1.72715182664046    0.51214802855790
O          -2.35718068041326   -0.38428754575851   -2.09388630706987
H          -3.21494768804905   -0.03869094369333   -1.84276549013384
O          -0.59014065066613    2.28086736672953    2.97849830194293
H          -0.26403267057141    3.16154864726605    3.17090420913426
H          -0.40096318208673    2.12408206430656    2.02816655540999
O          -1.20113056368539   -2.26944845408630   -0.62747176607699
H          -1.76213511735585   -1.64723387700677   -1.14892639941210
H           0.02436771833021   -2.28242545055116   -1.40043518419648
H          -0.82703554360916   -1.72595850946908    0.10201648851367
O           0.84621589071389    0.05698635073745    3.41769578768797
H           0.28592672532495    0.85674320718245    3.50940261676994
H           0.36924973763988   -0.51269697911943    2.79588461674935
H           1.86145897129784    0.45309631530684    2.24774612388132
O          -0.67888371181019    1.67872610971268   -1.97868853465506
H          -0.49386897968996    1.83581130023228   -1.03084973249447
H           0.18265370875505    1.44636909026218   -2.33644418767044
H          -1.74620933470587    0.39155110237384   -2.09487048584548
N           1.00105780818250   -2.05998655304730   -1.89247601948544
H           1.26648721404853   -1.08528271802343   -1.49724346248033
H           0.89971539733036   -2.01196337608887   -2.90110168381548
H           1.70701706041117   -2.74085024239442   -1.63399585010759
