    26
        -50.44778666  Gyration_radius:  2.5032564248 Dipole_moment: 3.916
 S           1.02295927636691   -1.59024107985129   -0.62206109244780
O          -0.25039125545304   -1.58324523873349    0.06241358090090
O           1.71966227024558   -0.30427144313380   -0.44314427337826
O           0.97630877871444   -1.99286571412885   -2.00387584715216
O           1.92663120965489   -2.66909150506276    0.11509151910867
H           2.39722931622580   -3.07187005949875   -0.60751136761099
H           1.12444013472393   -0.49651399641763   -2.93042252712567
O           1.15515923412191    0.46626022995029   -3.07546273196868
H           1.75329462850840    0.78227844621099   -2.39226252795869
O          -1.43179875737088    1.85033835100769    0.31984809444576
H          -1.56774694436093    2.75319040232355    0.02919023143702
O           0.33381090127753    0.20638346235739    3.34356011000422
H           0.07527678114833    0.73415420463046    4.10087164521881
O           0.91534647382378    1.37734041544817    1.16387341845694
H           0.79277421516889    0.91559641181639    2.07411872351463
H           1.29300061345928    0.63757914506543    0.48978584655670
H          -0.03694203704215    1.60536018546086    0.82384525956914
O          -1.76733140876600   -0.48241503026131    1.97352873182009
H          -1.99164668628686    0.32377415983089    1.49169754107993
H          -1.31068684485546   -1.04755007621826    1.32184268157629
H          -0.50294571449424   -0.18046300217647    2.95820363042601
N          -1.34798094249657    0.32757514169932   -1.72527991389069
H          -1.45108659845620    1.25363030844774   -0.54412189050133
H          -0.57513839839970    0.57514120486630   -2.34919784328077
H          -1.08461246376828   -0.54962575304245   -1.27999697416316
H          -2.16758579168575    0.15955079940821   -2.29453404463622
