    26
        -50.44448068  Gyration_radius:  2.50691683752 Dipole_moment: 7.757
 S           2.39210200446899    0.94396638482559   -0.24672112888261
O           3.51488153517009    0.97523831865477   -1.12423764973739
O           2.61898124048843    0.88018953729165    1.17326015628451
O           1.58128800522903   -0.41499963279042   -0.55888259278090
O           1.40450157817303    2.00841142037148   -0.59506443861752
H           1.19174564731618    1.45079999609497   -2.18608030321133
H           1.48661070692252   -0.41061300302892   -1.52094552805976
O          -0.73392567410551    1.44307564303190    0.45959072336843
H           0.18272650994699    1.82725330092430    0.04560534684709
O           1.05581726651528    0.78183229634391   -2.89092061905668
H           1.80388579460835    0.87830339720600   -3.48368597773758
O          -0.93369100859980   -2.08091899040979    0.12162983154873
H          -1.10091996982827   -3.01489483195127   -0.00477081597737
O           0.41284935622302   -0.25206737796284    1.93217689949080
H           1.31366625631240    0.14811894298006    1.81212328410547
H          -0.37009420274263    0.74725626933977    1.15191987091817
H           0.40438090693046   -1.02019901242798    1.34133344312606
O          -1.35039795541125   -0.00539465486384   -1.53568577142313
H          -0.66176358952354    0.19056954339403   -2.18574587897806
H          -1.12644164711293   -0.86315958538583   -1.11778876875409
H          -1.11238242031259    0.90076899599890   -0.33679631308764
N          -2.49967572989868   -0.98817708472155    2.03084404666512
H          -1.57583318515220   -1.75568574054233    0.80506179400436
H          -3.13838028559213   -1.53635089642908    2.59288173287272
H          -1.75708467769711   -0.65320681002356    2.63558634720515
H          -3.00284646237159   -0.18011642600082    1.68531228992436
