    26
        -50.44448070  Gyration_radius:  2.50681503467 Dipole_moment: 7.759
 S          -0.47880252242247    1.17488245871430   -2.25048262445249
O           0.01251668739995    0.04984251176173   -3.00204483526760
O          -0.52255833755093    2.45575807913964   -2.87431444415879
O           0.55390421596203    1.28171218704743   -1.01614332274572
O          -1.77260890329410    0.85810176191967   -1.57548644948366
H          -1.72265223801828    2.23545658779445   -0.58121041700701
H           0.26981767755122    2.07787464660548   -0.54713632730936
O           1.80505646168623   -0.21524361086818    1.38360985458262
H           2.61338462775094   -0.03734120196049    1.86449596282057
O          -1.37875138332520   -0.96386222913604    0.01502576426040
H          -1.67057626108314   -0.23800837043224   -0.72495829235028
O          -1.31134664867832    2.89150073837334    0.02145049863530
H          -1.41242938235234    3.73951171608610   -0.41544714477218
O           0.84669847394269   -1.45781664384770   -1.06341247552372
H          -0.46299000523992   -1.29239765615713   -0.37041482957055
H           0.61628028397904   -0.99882586762010   -1.91318433349180
H           1.40765110689831   -0.82702755612483   -0.58755049927389
O          -0.68293363142690    0.71723023702084    1.78905214158606
H          -0.90658481647225    1.57288328527187    1.39782253762857
H          -1.16094256848692   -0.35914600152568    0.82686644846391
H           0.28309543791965    0.58824048680243    1.68439939445833
N           0.98347537511730   -2.77506727646074    1.63526264664435
H           1.55651594893051   -1.15933665104421    1.56296522276399
H           0.98274823672504   -3.01278748620300    0.64895043438764
H           1.52423388716208   -3.47562259785604    2.12628982394187
H           0.02779826731602   -2.83051152734552    1.96559525516198
