    26
        -50.46422751  Gyration_radius:  2.57405023459 Dipole_moment: 3.121
 S           2.09394022720085    0.95780174873849   -0.18988821776489
O           1.22360913551226    0.25753214936523    0.75865961041824
O           1.69815255446144    2.33112147405269   -0.40555699181222
O           2.24040748233273    0.18004681375331   -1.40469447653198
O           3.52061663933838    1.03920289243798    0.50138303145951
H           3.64649479153315    1.98200575730753    0.52728449597880
H           1.01767751573627   -0.41596140773635   -2.23310709168993
O          -0.93916850153445   -2.60966156976932    2.11491031644445
H          -0.23925111088246   -3.04321394304304    2.60430577744605
O           0.17999857850582   -0.71075408233823   -2.67887861027620
H           0.41019574355476   -0.85086025349986   -3.59824647062967
O          -2.35408170506772    0.82082214912227    0.31026427438925
H          -3.23258397609876    1.14882018395480    0.11663328716759
O          -0.66013466935500    1.73616070240084   -1.45703599177155
H          -1.73396818338979    1.30472475148730   -0.29912455546247
H           0.18546177734264    2.06786827455231   -1.09136498282360
H          -0.43613614160598    0.99717177254222   -2.04080752165829
O          -0.80700689785111    0.02407816912965    2.58813949991293
H           0.03476341066443    0.21931986225803    2.14543776461892
H          -1.47967133376608    0.44464472207066    2.03559058181928
H          -0.96999194538917   -1.68096257177288    2.45195743602797
N          -0.69114687326784   -1.27209503536620   -0.17243637634447
H          -0.54505560402466   -1.50564394298711   -1.15997798338477
H          -1.51435544324027   -0.64923265243302   -0.06313053350287
H          -0.79158258774966   -2.07300079434866    0.48416045525907
H           0.14281714702017   -0.69993513987832    0.15552326267121
