    26
        -50.44448073  Gyration_radius:  2.50741797043 Dipole_moment: 7.756
 S           2.40646396021288   -0.84618044586549   -0.40983346957749
O           3.67683929909832   -1.00166666804401    0.21768592221877
O           2.35636811008016   -0.47109164945642   -1.79870848004942
O           1.65326206640882    0.37021563510346    0.33491684080898
O           1.51748552844809   -2.01197208721166   -0.12605968510228
H           1.60609396805265   -1.81588908628861    1.55953459560947
H           1.74417944390608    0.15673793047525    1.27343805538935
O          -0.79019542086746   -1.35260498853291   -0.62030702693355
H           0.19398959052542   -1.76546641866911   -0.47594559396191
O           1.59884478911558   -1.31939818331851    2.40581480582500
H           2.44770157172320   -1.49800745355138    2.81530444465342
O          -0.96662031817072    2.00307733218651    0.51378900396763
H          -1.11842549923226    2.87712197383983    0.87331456935161
O           0.03202215635325    0.67659762526428   -1.87195019702064
H           0.12802360839611    1.29971404565606   -1.13602442538020
H           0.94381365348797    0.30859032860249   -2.01074666180675
H          -0.57494688531312   -0.50731487517788   -1.19820290951563
O          -1.03296486156171   -0.39717568919913    1.72181156063974
H          -1.01671833650968   -1.01336453754254    0.33140635765859
H          -0.22993195356390   -0.68837533304882    2.17520021889801
H          -0.90486084966590    0.54078957113007    1.46775143027828
N          -2.85209118506863    1.26957892072192   -1.27448280933950
H          -1.72234370386611    1.79959206959263   -0.09669342765672
H          -3.27745327458451    0.38332431335057   -1.03143747379799
H          -3.58713840579166    1.89515747647057   -1.57892235190396
H          -2.23139706159801    1.10801019352197   -2.06065329328997
