    26
        -50.46422734  Gyration_radius:  2.57406824312 Dipole_moment: 3.114
 S           0.41783852479318    0.84347682112548    2.11011494553761
O           1.00503323883673    0.72830116185873    0.77236436595044
O           0.45581219856009   -0.39874824386658    2.84802644184013
O          -0.89588698055237    1.45160360122099    2.03059983618266
O           1.35706820328800    1.83618014718725    2.91760397163300
H           1.62000322411274    1.27540235263539    3.63990693016296
H          -2.04655908380559    0.94627455792374    1.05299010063362
O           0.06775530869603   -2.25580052167595   -1.10618668945949
H          -0.19682239666364   -3.12330087657110   -1.41346607136769
O           1.23961170148942    1.20267635079968   -3.02977983417369
H           1.72965705068580    2.02507517823571   -2.99901772638720
O          -2.69187881713651    0.52821221979893    0.42339813551492
H          -3.56191784856341    0.75672826740513    0.75306279287721
O           2.33438926461056   -0.50933215533118   -1.28349783566595
H           2.10853234195865   -0.05323992953244   -0.45667396127180
H           1.78455033833542   -1.30453748448768   -1.28460002017204
H           1.77448996534412    0.54918616079968   -2.51619446672631
O          -1.10446748497098   -1.72843275844813    1.16937112881374
H          -1.79508476240815   -1.07571018235297    0.98436185748784
H          -0.29037573411187   -2.16451642707045   -0.18233018148257
H          -0.52707624837758   -1.33500967135477    1.85540181510052
N          -0.58686811938583    0.37443762607372   -1.28043906319879
H           0.01048317477768    0.59070920415053   -0.42785673280208
H          -0.48405028019028   -0.64640976537151   -1.43836160183013
H          -1.55880206282890    0.60734872107590   -1.05210171557278
H          -0.16543473649551    0.87942562577858   -2.08669643162412
