    26
        -50.44448077  Gyration_radius:  2.5071497997 Dipole_moment: 7.759
 S           0.43675813372822    2.43399955469158    0.74860486390653
O           0.85394474015714    2.82051353783590   -0.57368342414282
O           0.85336743227302    3.22101523381904    1.86155037886566
O           1.08406289949372    0.96813478010638    0.93326112074574
O          -1.03011094666185    2.15910248343934    0.80043955589890
H          -0.95292827161806    1.41185428129609    2.32444298523258
H           0.86384620166761    0.73297928103587    1.84475172910048
O          -0.58986724177039    0.81316794734779    3.01192674129019
H          -0.37531514982352    1.37820833039025    3.75680800813717
O           1.25485596415903   -1.89512311532984   -0.22351228398864
H           1.91623540456998   -2.57340094890638   -0.08642686834990
O          -1.50931321335234    0.27702336799242   -0.69383961572006
H          -1.41509095979907    1.16882242087514   -0.09772463508837
O           0.76022945218032    0.51934683421473   -1.76594207720898
H          -0.61934798024007    0.30357331443728   -1.24398524081154
H           0.88262962442053    1.45626054439424   -1.46065478857163
H           1.29274461334074   -0.01013208195442   -1.15346263630031
O          -0.97675129689120   -1.35993951615523    1.17544877203507
H          -1.39656017965591   -0.46462292717694    0.01977989326110
H          -0.07350122220002   -1.58324814317224    0.86702228525645
H          -0.88695908530476   -0.79777922354176    1.95718428751118
N          -0.14435869661825   -2.24898265987506   -2.50552914602784
H          -1.14209364784250   -2.27170025488027   -2.33370158820568
H           0.76544555309704   -2.12412857752290   -1.05616913704837
H           0.07405310072543   -2.97891323484732   -3.17174713042909
H           0.07402476162181   -1.35603121828065   -2.93484204926612
