    26
        -50.46305573  Gyration_radius:  2.55430804388 Dipole_moment: 5.315
 S          -0.49828580267906    0.42365637597941    0.97248156283659
O          -1.67332779491829   -0.34616084942067    0.59256864140815
O           0.73383428748179   -0.33579891732607    0.78974524388006
O          -0.43451436108334    1.69992781621734    0.25374043952502
O          -0.61323380059700    0.78674481339646    2.47609303278883
O           0.28253453889773   -0.43136520040182   -3.13185720465198
H           0.00256181805784   -1.28314327516399   -3.47004315588794
O          -1.93686883409725   -2.58162387280686    1.98855889440641
H          -1.88469271632889   -1.81421088348015    1.37867676279059
H          -2.81211333172577   -2.55009567795499    2.37838359976948
O           0.23793607325199   -1.53394374897122    3.16135244516289
H           0.76907445227752   -1.44329269898554    2.35615363070816
H          -0.32398306823667   -0.05427928246262    2.93530651479598
H          -0.51785087489380   -2.10314496092234    2.90322495172997
O           2.24738080240359   -0.29249567605157   -1.35443681274066
H           2.12976123742019    1.13717104369986   -1.15446956466491
H           1.76238602509895   -0.52542789619239   -0.53099270744235
H           1.60296646266556   -0.44992608015888   -2.08513418954877
O          -1.83390441150353    0.58254844553224   -1.87594618034819
H          -0.51699862771079   -0.03641171847498   -2.70743402480805
H          -1.90502636066009    0.10205673343479   -1.02656513359477
H          -1.67490368032862    1.49076676616329   -1.60379734193924
N           1.81750350948790    2.17538179849994   -0.88827572334674
H           0.87323086865444    2.03061235717624   -0.37469139516543
H           1.67997960025684    2.74094464238560   -1.71959399939145
H           2.48655398881612    2.61150996627765   -0.26304829626213
