    26
        -50.46365340  Gyration_radius:  2.41774269391 Dipole_moment: 9.111
 S           1.66990710823549    0.72038877813956   -0.79309480956806
O           0.83819499445728    1.23615988774965    0.29361801518283
O           2.25097085578780    1.71260666441203   -1.62985007233141
O           0.89738766623415   -0.29424655517877   -1.56188420287099
O           2.81192726715532   -0.10526528076039   -0.09062144154522
H           2.35385214493025   -0.70925816485638    0.52208926382783
H           0.06358532743981    0.88478088281101   -2.54074429592706
O          -0.37776647130461    1.70997501536672   -2.80168313916291
H           0.33495845358518    2.35552062829740   -2.81404241805265
O          -2.41673950989791   -0.25935566153822    0.77537351352464
H          -3.37304759402467   -0.29676519683648    0.74128211196835
O           1.45089851879283   -1.73439353730479    1.65677112795328
H           2.07060079160900   -2.02954051622059    2.32556831723842
O          -1.62002669682156    1.88478117125175   -0.40308702085925
H          -1.48226550257869    1.88709392212398   -1.36998544828659
H          -2.15710711093154    0.59826069441351    0.30401037886866
H          -0.70454809166389    1.84440708156303   -0.05661114497984
O          -0.13656860721263    0.13731067240420    2.47217003967461
H          -1.05279937967199    0.01519557526620    2.18914459675716
H           0.87373735435347   -1.03577311720593    2.09049560477360
H           0.25211017820897    0.73085022510061    1.79404893921116
N          -0.53204613845452   -1.88173142882605   -0.21405407026569
H          -1.34051234983757   -1.33714727652079    0.17440109396824
H           0.10142087766328   -2.17466373546609    0.54114965424514
H          -0.84435618190115   -2.67213791961288   -0.76673818873656
H           0.06823208589999   -1.18705281860027   -0.83772639464579
