    26
        -50.46365324  Gyration_radius:  2.41782484112 Dipole_moment: 9.115
 S           1.66235001182383    0.84713543819151    0.67326476050096
O           1.27492402229267    0.46718056481538   -0.68478297426591
O           3.04079072874383    0.67452147951679    0.97719503434212
O           0.77184417534494    0.15798427506896    1.64756723848129
O           1.28471089019586    2.37014751401876    0.80547299857559
H           0.35871870859376    2.43409274209308    0.50813343836856
H           1.68044058585865   -1.33139374412114    1.63034580439073
O          -1.30902492955183    2.47741461209695   -0.10176041063368
H          -1.49922968906548    3.38438388596895   -0.34601734525591
O          -1.64403558937134   -1.62527177987108   -1.07712561704170
H          -2.11647043941345   -2.43798725473854   -1.25985075514751
O           2.22622178757611   -2.06626766930933    1.30485389035952
H           3.08384055237255   -1.66077119450473    1.14719026815648
O           0.88209221354414   -2.11482351675444   -1.04399536111495
H           1.15671887466828   -1.17543404778777   -1.08695399889460
H           1.30898619567450   -2.42447103968233   -0.22194495832725
H          -0.66197302320496   -1.87098790889050   -1.07784867800633
O          -0.87138779105221    0.93097986373110   -2.12748156267845
H           0.03812899281613    0.78347072502023   -1.78939415995215
H          -1.29991322790738    0.06784751130529   -2.05092736589852
H          -1.18629049242103    1.97009446908438   -0.96025888694774
N          -1.67430876372159    0.02159557307903    1.03253838984931
H          -2.24978510996510   -0.24733940977088    1.82261671998385
H          -1.88483970943076    0.97818894941573    0.71906276610691
H          -0.60369326347883    0.04499057113500    1.32378473331044
H          -1.76881571093940   -0.65528059912786    0.23631602171159
