    26
        -50.46365339  Gyration_radius:  2.41774503885 Dipole_moment: 9.111
 S           1.67965199090911    1.00408996054543   -0.32684258004361
O           0.52872319480382    1.33030671898452    0.51443288213601
O           2.28789693664816    2.11531361881210   -0.97299082367563
O           1.29863347170536   -0.07336036045774   -1.28146581638812
O           2.72304342172073    0.32413754222232    0.63659675200556
H           2.22714216323041   -0.37300469411978    1.10355673450841
H           0.56282191672060    1.01644913903803   -2.42764948784152
O           1.24108201270361   -1.58076983898244    1.95441733100683
H           1.70950598080766   -1.81523260373870    2.75696359465440
O           0.07594584624257    1.77799548936830   -2.78383200913645
H           0.65610314290589    2.52362224887127   -2.60420333418308
O          -2.46096681182127   -0.66052523966735    0.12231930585994
H          -3.35892336226076   -0.83991253220628   -0.15798544241043
O          -1.74395524257520    1.63804073911411   -0.78521519510503
H          -1.36819654261794    1.71154868876975   -1.68372083188860
H          -2.23052618426700    0.24998231363960   -0.25574797112605
H          -0.95153972013922    1.71774891245462   -0.21467741286251
O          -0.77732323119634   -0.01450998623592    2.35507077159061
H           0.46965922488815   -1.00052673979422    2.23307021282952
H          -0.32922006053326    0.66516032093866    1.80684320464262
H          -1.56082118009038   -0.25831481754688    1.84403011438340
N          -0.15396515495171   -1.92617601474721   -0.36647554570672
H          -0.18678252912429   -2.72484778867776   -0.98999182948575
H           0.30633835632379   -2.15907126277733    0.52312205793224
H           0.46600491463849   -1.11754947946594   -0.80629858514224
H          -1.11033256471021   -1.53059433415119   -0.19332609652549
