    26
        -50.46365334  Gyration_radius:  2.41777743071 Dipole_moment: 9.112
 S           1.59124482648094    1.16582676563249    0.21008589601043
O           0.17074737108900    1.50539005629094    0.13538865183614
O           2.46692223532545    2.09745650890027   -0.41243790522037
O           1.78939395384295   -0.22398952665761   -0.28631198108084
O           1.92187945248361    1.08448705966121    1.74744802420213
H           1.24276304536138    0.49741801799524    2.12707387962800
H           1.82118296697122    0.23680009304202   -1.96875325214897
O          -0.06232281869746   -0.53301474795377    2.75175566035251
H          -0.11774972646183   -0.37994474735383    3.69621072041998
O           1.62002085424478    0.71463938058837   -2.79036865652002
H           2.01180492549844    1.58182760669691   -2.65124532217614
O          -2.12570613176878   -1.08455902026930   -0.90162237869671
H          -2.72141102387349   -1.53254795024352   -1.50288120095336
O          -1.00230749061649    0.87217458070077   -2.13878391505752
H          -0.19203558319994    0.71768600137589   -2.66171126500395
H          -1.71507694222712   -0.32717357219582   -1.43329989219132
H          -0.65622959740185    1.30391591736085   -1.33033576821524
O          -1.94931178646325    0.61348290579001    1.40538117200278
H          -1.26586227186381    1.14798183759608    0.94663781216611
H          -2.32240725633535    0.05270618537086    0.71198164264547
H          -0.85286297280780   -0.06927468767958    2.34030537090904
N           0.05383897024919   -1.92375699309137    0.40558013205894
H          -0.83476240262501   -1.70441199950330   -0.10755311007796
H           0.36254715474311   -2.87330846767252    0.23012354815317
H           0.82208715138027   -1.19845064207859    0.06571341176452
H          -0.05638690333082   -1.74136055229675    1.41161872519131
