    26
        -50.46365339  Gyration_radius:  2.41775065708 Dipole_moment: 9.111
 S           1.65117976116259   -0.01721549041120    1.09982196124302
O           3.03079314345518    0.32048053415053    1.16984386055047
O           1.27113380813209   -0.83466475282755   -0.05173009041758
O           0.76629158513183    1.17866166829970    1.16495475869174
O           1.25634160139929   -0.86712695301883    2.36524904630264
H           0.32931218639807   -1.13093670424114    2.22012804956346
H           1.69079982987957    2.09319578757908    0.00229923947555
O          -1.33791819788051   -1.62190427277040    1.85473436022265
H          -1.53738429628459   -2.37924303830616    2.40708214526242
O           2.24522119476087    2.29804836383609   -0.76869203566310
H           3.09922456036254    1.91795761476012   -0.54262120567532
O          -1.62180091981393    0.18909383551003   -1.96012699737049
H          -2.08370048110139    0.56061621879114   -2.71225535218515
O          -0.87885008853589   -2.23544854251678   -0.61523084433199
H           0.03175771241588   -1.88489438473928   -0.50917538305370
H          -1.20765415330113   -1.97433373273472    0.92299810297198
H          -1.29705034534121   -1.63359472631024   -1.24556386414253
O           0.91014717401021    0.50418172659334   -2.29372620459591
H          -0.63658520123956    0.33532296286311   -2.14160649892176
H           1.33800348965950    1.33673509022942   -2.01511523104403
H           1.17350257151115   -0.11926488308859   -1.58544076594830
N          -1.67646984114899    0.80175932180740    0.64457292497101
H          -1.89969059787355   -0.03980296740432    1.19174822673078
H          -1.76070923820122    0.60551814193469   -0.38283543270143
H          -2.24920234705520    1.59054453950247    0.92300146627079
H          -0.60669290042779    1.00631463255640    0.85768577376182
