    26
        -50.46365338  Gyration_radius:  2.41775252747 Dipole_moment: 9.109
 S           0.12697978438903    1.57368852016076   -1.20130932013465
O           0.64133230784165    2.09436356661623   -2.42058009195109
O           1.12339203011359    0.97636580526892   -0.31301293359330
O          -0.98109760726616    0.60265733215009   -1.41755673779735
O          -0.52909336922533    2.73937106621048   -0.37054423530624
H          -0.78812268862302    2.33761786700218    0.47885073698861
H          -0.14710455515147   -0.27500085450976   -2.67311846361510
O           0.57422236602965   -0.68116546643569   -3.18159420768769
H           1.06074787763403    0.07226538840618   -3.52886402800919
O           0.39377807617544   -2.27087970889312    1.09186485669553
H           0.48191047747232   -3.21964207318685    1.18767046145464
O          -1.17549338639563    1.54687767644643    2.02143495307360
H          -1.28438042223455    2.23860389691711    2.67577918095524
O           1.80709596646417   -1.49756170420553   -0.91472504270566
H           0.96711398098090   -2.01956905196053    0.29621752790022
H           1.42810990703710   -1.51894177075758   -1.81465033330005
H           1.77013712055905   -0.54485139577285   -0.68962187955987
O           1.06999359459099    0.27964583457510    2.21967123629708
H          -0.29089430843072    1.11025524836708    2.21181340556272
H           0.98138084913473   -0.67742838649334    2.11630420484523
H           1.30497138361330    0.60188278067890    1.32291579842447
N          -1.73001267949491   -0.71746926837628    0.60138692317110
H          -2.61712355855587   -1.18191211413760    0.44309039505696
H          -0.97117284375762   -1.40249737355748    0.83790073225258
H          -1.41171328723290   -0.17017464422295   -0.31017738346552
H          -1.80495703566879    0.00349882970919    1.33085425444191
