    26
        -50.46365342  Gyration_radius:  2.41766504903 Dipole_moment: 9.112
 S          -1.55256286600496   -0.92516153040793    0.81951901336835
O          -2.86576991051860   -1.43437723710619    0.62340116468692
O          -1.37242921147106    0.47980828148189    0.45570428036748
O          -0.51403431035009   -1.74497432205151    0.13633290026029
O          -1.18035820202870   -1.01357270840081    2.34682875087835
H          -0.30882769216021   -0.58415783986005    2.42508864631591
H          -1.39381559930828   -1.85141960985391   -1.36568330615422
O          -1.97121957642612   -1.60692518595462   -2.10779902963332
H          -2.84943825748559   -1.58719828181374   -1.71634596567175
O           1.24760274519002    0.26798760253703    2.49565494971985
H           1.38650118403457    0.52733255715593    3.40774953722442
O           1.48036360929680    1.33448830206001   -1.59328983204505
H           1.92902462189698    1.59733196639746   -2.39743806159890
O           0.52665525160167    2.22232847708791    0.96344802681035
H           0.97181830572688    2.22302268394041    0.10534769190026
H          -0.31940373081987    1.75235229602928    0.79994971745889
H           1.00215664141861    1.10387485541552    1.99519666392642
O          -1.00472928549185    0.92128840863670   -2.11690052352377
H          -1.29481306817952    0.91203242024775   -1.18118648873295
H           0.51261113499511    1.18801994225602   -1.85228569235087
H          -1.29600849619328    0.04652718988940   -2.43916852362694
N           1.81184819965949   -0.76534882426701    0.03269655737875
H           0.79716033789477   -1.21480265595709    0.04134155163762
H           1.96364761487821   -0.43555538400692    0.99479379095253
H           2.50197754694646   -1.45683140988089   -0.23805989099327
H           1.79204300290910    0.04393000641764   -0.63489593855651
