    26
        -50.45212709  Gyration_radius:  2.45314831279 Dipole_moment: 5.994
 S          -1.08816600224733    1.93045259724254   -0.63688308002848
O          -1.61598357067620    3.15057517760400   -0.14456298810072
O          -1.73650266076522    0.72922711136431   -0.15124255220390
O           0.42912621350494    1.81524222069632   -0.31540282131884
O          -1.05689178184271    1.90535844931408   -2.16886800426206
H          -0.49229052872727    1.09858361837578   -2.38853746572874
H           0.56783611928817    1.73983985423672    0.68467531322545
O           0.68525704917069    1.51117662144526    2.20521513495584
H           0.29719228117852    2.26772938411168    2.64963547053949
O           0.25433284818687   -2.40060098562858    0.93280931812499
H           0.66683682194598   -3.20004361776242    1.26056351316511
O           0.31370361890585   -0.22100398794950   -2.59276165106649
H           0.27380047840237   -0.46375239898907   -3.52018087000787
O          -1.08932805051765   -0.37048477040422    2.22579884392917
H          -1.54496513482342    0.00038451070361    1.44903518634132
H          -0.68247840143942   -1.19611147881658    1.90832986639134
H           0.04180744001882    0.74929794383244    2.33693631954948
O          -1.30166027617255   -1.69844717415533   -1.21976281921238
H          -0.26838946960711   -0.88195788772693   -2.10438696011980
H          -0.82698492721862   -2.12637077126469   -0.48560112826723
H          -1.69919327115421   -0.89917669475712   -0.82873470287458
N           2.07718730184568   -0.63788131873128    0.14434196349088
H           2.13744230280104    0.04780325126963    0.88873676951000
H           3.02016944194565   -0.89505791226260   -0.11986933461140
H           0.98820646965952   -1.78353590526837    0.64070470538461
H           1.64993567835043   -0.17124584648389   -0.64998802679254
