    26
        -50.46365339  Gyration_radius:  2.41767039702 Dipole_moment: 9.108
 S           0.40096025180741    1.79839719353458   -0.73697194220044
O           0.26780097944007    2.68187595691166   -1.84327390693024
O           0.98731831743920    0.49596997599369   -1.05102094364625
O          -0.88322841971935    1.59517153685935   -0.01107106967519
O           1.35932560805558    2.44199395160610    0.33374097307021
H           1.46762243240386    1.76345334578015    1.02501963875145
H          -1.81625887009840    1.33961010248852   -1.46081419344613
O          -0.68279300121106   -2.44765022165976    0.21812197065731
H          -1.21490948231183   -3.24171468667139    0.15947874209399
O           1.66597576590635    0.45435739227137    2.20866668064736
H           2.45864231593488    0.64552411694930    2.71226274424031
O          -2.05498338003370    1.05783947291586   -2.35949993840279
H          -1.53779235522141    1.63817090746265   -2.92572490751184
O          -0.69367708854712   -1.26283270484253   -2.06591908422482
H           0.05434411792631   -0.66406771484582   -1.86170368988254
H          -0.71762938418773   -2.02374934272449   -0.70066034019517
H          -1.41203574338122   -0.63912174647018   -2.28709515933230
O           1.98428580565889   -1.41478018264587    0.45075923745797
H           1.89848260319858   -0.29829217729672    1.58495210610733
H           1.24790300168040   -2.04017794671273    0.41715144813865
H           1.78108331542478   -0.75935590952918   -0.25113101415167
N          -0.92643639386177   -0.24508896863272    1.71866754003122
H          -0.88974682650043   -1.16363255107261    1.21257613353571
H          -0.94829792269531    0.55641688062204    0.95154979950191
H          -1.74033103345730   -0.18145359788995    2.31969285562575
H          -0.05562462364769   -0.08686311240055    2.24224629973740
