    26
        -50.46306712  Gyration_radius:  2.54536091595 Dipole_moment: 3.910
 S          -0.58420823455363    2.11255894535922   -0.51092534242341
O          -0.89670572726786    2.14374845356706    0.91757892438774
O          -0.88124650421675    0.82056357815514   -1.09766299569184
O           0.76865040889793    2.56224302212558   -0.77022973106866
O          -1.55059694827671    3.15183841489105   -1.20821282763001
H          -1.15800587199732    3.97772010978423   -0.94585052424355
H           2.05019803250377    1.59122297480825   -0.29088407528618
O          -0.84561753425671   -2.84896413963070   -1.94485810868621
H          -1.19586539571606   -2.71160806775475   -2.82579999442584
O           2.56059029716037    0.86331612520592    0.13397621745009
H           2.34490997011676    0.07440663621861   -0.38531658521757
O           0.06929305962083   -1.80567420472251    1.43242861283958
H           0.28146476779175   -2.72362841959669    1.60495169622600
O           0.92712850323486   -1.10087309405030   -0.94963888686407
H           0.50726663277871   -1.83005135011375   -1.45425246453008
H           0.32209628105618   -0.33945354382256   -1.09287706220050
H           0.42989889652673   -1.60134414921706    0.52336828837501
O          -2.25448928490349   -1.34900896421237   -0.21548147153948
H          -1.75245702642662   -1.49318390761126    0.59668344243015
H          -1.94732655743522   -0.49000007303932   -0.55759148274180
H          -1.48387252472371   -2.41364041580831   -1.33121840663473
N           0.86407143516098    0.67854007518227    2.10932020284678
H           1.68098352990451    0.74966837599345    1.41415043379414
H           0.09424166555853    1.30730013972500    1.70604359295432
H           0.52278120967952   -0.30226620683711    2.10037658823884
H           1.12681694975920    0.97656969540307    3.04192194968646
