    26
        -50.46422808  Gyration_radius:  2.57416311288 Dipole_moment: 3.113
 S           1.21759139186317    1.87941065930598    0.57130075960166
O          -0.07568302737007    1.46414709816887    0.02046589343142
O           2.29992326804789    1.73796194019250   -0.37619725545427
O           1.45035919266179    1.23209068998205    1.84733400796642
O           1.10080716907494    3.43934592409920    0.83998841786841
H           1.78889806484909    3.76396095573595    0.26831074104948
H           1.32227612559526   -0.33820063921232    2.08223481195875
O           1.23787517378282   -1.32804721114945    2.10156910092071
H           1.76993100190818   -1.61989197515249    2.84287064982358
O          -0.02519463772524   -1.64428363724649   -1.89638166904418
H           0.17764106578633   -2.40879802617941   -2.43612970925614
O          -3.47262099753804   -0.32293348421898   -0.05652155210878
H          -3.98310672302670    0.41030329296891    0.28871128303781
O          -1.80047803868759    0.60694608953202   -1.93249696095746
H          -1.25552226172305   -0.13817037364026   -2.21961065030041
H          -3.00709506689272    0.02382696882254   -0.85648272300082
H          -1.21574723236479    1.13898052894324   -1.36876574681328
O           2.10890093463072   -0.89610534519933   -0.58768556916442
H           0.84262329288825   -1.31951667926451   -1.53326063218840
H           2.27289825471305    0.06930017051947   -0.58080982698848
H           1.97795705500237   -1.15894599111831    0.33476284550719
N          -0.95858595289096   -0.94535967076170    0.55641207396189
H          -0.59382548035246    0.04506459837743    0.42797579076840
H          -0.46680122054767   -1.36224000980555    1.35356696065281
H          -1.99455574372882   -0.88400090623686    0.63036872743563
H          -0.71846559793985   -1.44484496746945   -0.32152976872272
