    26
        -50.45980664  Gyration_radius:  2.48338816228 Dipole_moment: 9.586
 S           0.52536604682626    1.98045599896330    1.23866711748771
O           0.75749968189565    1.92561374377202   -0.20911078859623
O           0.42971601503976    3.28458425083562    1.79825988109210
O           1.89017487870588    1.34159235693397    1.85043685069322
O          -0.50753862430961    1.03073348334264    1.62673901336214
H           0.05630125341030   -0.43662140930135    1.73298115932028
H           2.20082532754154    2.08151066256457    2.36086360809378
O           0.52313949290775   -1.31853915847243    1.70320646236850
H           0.93236847010749   -1.42464051592000    2.56293043915528
O          -0.08397301904697   -1.42739787972074   -2.27203551596429
H          -0.16789286571409   -2.07766735349431   -2.96933276727174
O          -2.65541757182193    0.17895259006958    0.11659101407679
H          -2.07678418906206    0.55710109668088    0.79598985366605
O          -1.24404095350497    1.19159077619899   -1.97346712770228
H          -0.85310202295569    0.36640112931507   -2.29071275351587
H          -2.38799020814472    0.62374012140070   -0.71236414404022
H          -0.56669944917625    1.62407582561827   -1.43068178664701
O          -1.45054041359750   -2.13321262076750   -0.20972122865923
H          -2.05037849700537   -1.34892537039839   -0.08343694147686
H          -0.67651590768660   -1.74369046993684   -1.51505922404528
H          -0.86186309690520   -2.11772501950345    0.55461670485322
N           1.68205276397477   -0.44657707759749   -0.54504748677855
H           1.14579644813571   -0.88146725780565   -1.33452457919920
H           1.35838067445506    0.57729760987986   -0.45439970105291
H           1.39712055555390   -0.91202132768951    0.35013644160278
H           2.68399519037680   -0.49516419496384   -0.69152448082790
