    26
        -50.44484478  Gyration_radius:  2.47817894147 Dipole_moment: 4.670
 S          -1.21063916644613    0.44998191957953   -0.64157295231394
O          -0.99380641644158    1.05628301829533   -1.92516092217737
O          -1.61225534869999    1.32816204109424    0.41487598753535
O           0.11770235274803   -0.26888453487688   -0.24454664072767
O          -2.18308292682494   -0.71929821602963   -0.74963754842773
H          -1.75850389184401   -1.32642330410114   -1.45946048645216
H           0.76383848201719    0.34353714763403    0.21347805810377
O           0.23498728435349   -2.23475574329713    1.92474800982574
H           0.86294941995193   -2.47577188599989    2.60783030825114
O           1.73356673726551    1.47759065852859    0.78494682460726
H           2.60351526873698    1.38393188938998    0.39157676821526
O          -0.77270677583094   -1.94071405598454   -2.43129208230384
H          -0.34152993595161   -1.14252744034803   -2.74978739379546
O           0.71892374409057   -3.13268598259629   -0.59976260706676
H           0.34889321942663   -4.00811394051626   -0.46753146829537
H          -0.13974431430080   -2.38400744176416   -1.80442820516981
H           0.56085219358588   -2.65248046361054    0.23982697626054
O          -0.27321480809732    0.36223319105533    2.57159871876263
H          -0.92993688635637    0.72186414882748    1.95214480515502
H          -0.04439770026847   -1.31834816174289    2.13027862773137
H           0.54176840913182    0.83944499945694    2.38179197112856
N           0.34173802367798    3.23406145520246   -0.58108398089047
H          -0.05203418430980    2.61688878422458   -1.28986413416167
H           0.62751940043975    4.09543728873299   -1.03169662673252
H          -0.42526980872202    3.44771415492043    0.04671820167996
H           1.28086761865798    2.24688050390229    0.31600977123847
