    26
        -50.44484473  Gyration_radius:  2.47826838851 Dipole_moment: 4.673
 S          -0.41409454710614   -1.27870539230366    0.52242224252016
O           0.34935028726009   -1.71396374407757    1.65822328979219
O          -0.20801886743622   -2.00222147193769   -0.69520399421151
O          -0.07776079344987    0.22930361026749    0.29534372024906
O          -1.90107635678527   -1.22463008233941    0.85488085718782
H          -1.94604779651367   -0.61424369985696    1.67836430409537
H           0.73767825996691    0.35979737209463   -0.27064672344425
O           2.13214808790853    0.39520809449343   -1.04999939482946
H           2.71474792524612    1.03517782012785   -0.63602223783803
O          -1.57576506897045    0.37217368657081    2.76623903435359
H          -0.66427698335232    0.10773016234325    2.92029710776786
O          -1.71210514843218    1.94669415154155   -1.42659751897621
H          -1.55062368586915    2.66698989788959   -2.03824002657218
O          -0.29030211098982   -0.06232990157835   -2.59452522043079
H           0.63525428663069    0.18626437221175   -2.49696711901850
H          -0.39373802919696   -0.87311420946213   -2.06892043748290
H          -1.27579959527062    1.16130782164497   -1.81755759386618
O          -1.66980035872203    2.52649800041811    1.23317204347631
H          -1.55192154817781    2.21465489774102    0.31153447317455
H          -2.56879856083447    2.85911272882855    1.27783589896294
H          -1.54948707841261    1.22257006299478    2.25022633065448
N           2.63340972180271   -1.99358443173233   -0.08484341276787
H           3.50969490180875   -2.42423260337481    0.18592476841294
H           2.02093901627501   -1.97394535956447    0.72929330451141
H           2.44031785658229   -0.51748131330695   -0.75231530613032
H           2.17607619602652   -2.60503049963335   -0.75191837957913
