    26
        -50.46422818  Gyration_radius:  2.57446336629 Dipole_moment: 3.111
 S          -2.06762624480758   -0.56841344382525   -0.86388341695506
O          -2.89177234391238   -0.17270155186276    0.25565662850685
O          -0.78891470908683   -1.15196377925248   -0.44812149832847
O          -1.84699944209145    0.47648454254321   -1.84416559580575
O          -2.87095341745821   -1.73491418674514   -1.58045813441865
H          -3.63215512410927   -1.79453021656753   -1.01243751370165
H          -0.82579320088290    1.68157301316356   -1.64057391778606
O          -0.18227051459140    2.39667616645195   -1.39177619367686
H          -0.42498869986258    3.15958054978641   -1.91801770354843
O           0.92422674256823    0.61047460315757    2.25269931143199
H           1.18818552449329    1.12653319873295    3.01491523881656
O           3.01453650002999   -1.69622552486092   -0.45234606064562
H           3.01836172207967   -2.42544862254034   -1.07330889967971
O           1.06299958312307   -2.10322539853545    1.33848602116274
H           2.41258325392864   -1.96902620733368    0.28253245360715
H           1.04393819664806   -1.32776736495161    1.91549907023878
H           0.29290706881265   -1.99813925075733    0.75659359608263
O          -1.21137485414112    1.65911673079535    1.17210519526981
H          -1.90563621990456    1.01649995085659    0.91914054913231
H           0.03930860229096    0.96495401484223    1.96709681110558
H          -0.92819054990175    2.09326715007435    0.35452475667598
N           1.34222733997989    0.37427529152577   -0.42073103194949
H           0.46735048306650   -0.22213635808710   -0.51814689761454
H           2.15222406759924   -0.22172644756359   -0.68713874048744
H           1.20374855649566    1.22964023993297   -0.96882897576423
H           1.41407766963031    0.59714291104557    0.59068497835649
