    26
        -50.44484469  Gyration_radius:  2.47822222619 Dipole_moment: 4.674
 S           0.94702307704908    0.76762057207917    0.77198094101549
O           0.06809123795119    1.87016255969513    1.01797224203601
O           2.16062357819315    1.06684811513200    0.06498292956242
O           0.19426154086054   -0.32457263672839   -0.05214720538664
O           1.24333257690456    0.03272076398405    2.07456472645943
H           1.79355273959607   -0.78067117656416    1.77710819037115
H          -0.38318441816059    0.06606064228070   -0.77067027796616
O          -2.02435370739538   -1.87355604284324    1.07089556651954
H          -2.85312985484372   -2.22863175904222    0.74523563077931
O          -1.12728500338639    0.83404773878439   -1.95790474118581
H          -0.97036188628946    0.37397388016322   -2.78495189242015
O           2.45452459850441   -1.84263055163047    0.92309127476664
H           2.69015492643489   -1.31042502100328    0.15776801251468
O           0.25224670198330   -3.22948575766164    0.44570401980502
H           0.17738244099699   -3.88032079566342    1.14685230092743
H          -0.49724417965873   -2.61250001729466    0.58055962788406
H           1.66802951468927   -2.39441792649508    0.66390543995739
O          -2.39927446893911    0.79308297424448    0.65791912215365
H          -2.39948961765927    0.90763550621434   -0.29857083521025
H          -2.10926904435311   -0.89926940117426    1.01060067681364
H          -1.61804981277647    1.27756055059148    0.97313013363147
N           0.62522331244782    2.76923994136152   -1.68901445676126
H           1.02889072845257    3.39345813814376   -2.37757463606149
H           1.38082510786137    2.24676853535147   -1.24804394422463
H           0.22182330034717    3.33515510066313   -0.95070325366815
H          -0.52434340881474    1.64214606742563   -1.95268963228936
