    26
        -50.44484471  Gyration_radius:  2.47817577389 Dipole_moment: 4.669
 S           1.10913009463658   -0.82431030013548    0.41257082546902
O           2.38789664053837   -0.32510312367649   -0.00899233390603
O           0.64843799603540   -2.01498143593387   -0.23442716611307
O           0.07354850367050    0.32313934690326    0.19001255031517
O           1.06589713493741   -1.00027307710719    1.92644895588408
H           1.32070611905332   -0.07449895498319    2.28789765122543
H          -0.29589059983676    0.33228996301466   -0.74044425709779
O           1.62413757632530    1.40678018633793    2.37826308274559
H           2.06769038968960    1.53212785698321    1.53448256162605
O          -2.59712358048501    0.26794043950973    1.39217080398893
H          -3.47932035517722    0.53613979471983    1.12981459274113
O          -0.66730120644983    0.30511829731692   -2.29428129621590
H          -0.63293718439421    1.19633294581794   -2.64770145751624
O          -2.01549884096641   -1.57361266885419   -0.52955535102588
H          -2.34072620245951   -0.44786617030161    0.77416422133072
H          -1.92513359220767   -1.07254557421138   -1.34732219215985
H          -1.13385056487299   -1.94481875530870   -0.35854919116860
O          -0.89098234118053    2.21570334899254    2.23413860379365
H          -1.22058058566891    2.25487421748817    3.13455629934391
H           0.71144569710606    1.79295997547027    2.28860003527429
H          -1.39032715979049    1.49002632428201    1.80448924771592
N           1.62386385599293   -0.89759648048085   -2.73311752294723
H           1.39891582609508   -1.87272331297178   -2.57007647614419
H           2.25281741985299   -0.84918816095373   -3.52606211564547
H           0.17440046907119   -0.16203543229205   -2.59411234657703
H           2.13078448048414   -0.59387924963665   -1.90296775493749
