    26
        -50.44484480  Gyration_radius:  2.47815140059 Dipole_moment: 4.668
 S           0.28862569708171    1.09695333914407    0.89044459448948
O          -0.99748726634381    1.11143747116487    1.51833281762424
O           0.68041955763886    2.30196544239437    0.21467374137767
O           0.34150642018071   -0.05590083622653   -0.16157682803084
O           1.35500421065380    0.66246520297699    1.88979403608419
H           2.20813861486139    0.59519553453216    1.32387077748442
H          -0.50762186808494   -0.13708200990918   -0.68570541608697
O           3.15783782585142    0.52998495660223    0.14565057436668
H           2.72833644779970    1.15805294675037   -0.44216043424790
O           0.28773238850258   -2.87925423607053    0.61777648855538
H          -0.09236460031063   -3.68729331236807    0.26907047452672
O          -1.85958501396698   -0.03448952864719   -1.53104645119310
H          -1.65789152627404   -0.09622391483698   -2.46691330266081
O           2.56410879683396   -1.95188018782084   -0.55370370283999
H           2.96157858060214   -0.38002899478653   -0.20575424125642
H           3.16473189550630   -2.52570123514149   -0.07323562253810
H           1.67496230866639   -2.13714097898280   -0.18545149180890
O          -1.95160169058594   -1.38688940055333    1.04288737048177
H          -1.69612305314487   -0.53183022785495    1.42752091821723
H          -2.29256627040260   -1.17856942482528    0.16634732150752
H          -0.47186620071828   -2.30758437051100    0.85494540345973
N          -2.00274479912896    2.49157063817463   -0.83302917537330
H          -1.01951217780196    2.66109905333528   -0.62599900159266
H          -2.46467951507925    2.44834686965422    0.06852725256583
H          -2.36606751262937    3.29421477032908   -1.33346109181854
H          -2.03287123971365    0.93858243346810   -1.33180499130267
