    26
        -50.44484473  Gyration_radius:  2.47815735726 Dipole_moment: 4.669
 S          -0.49881170666541   -1.21948746349252   -0.58612804333554
O          -1.78633508119460   -0.69579408958106   -0.92757347617315
O          -0.48531770649747   -2.33983086836570    0.31214999235341
O           0.36301484555922   -0.09523825939170    0.07122218149684
O           0.29437899015941   -1.52715202841053   -1.85133691074543
H           1.21837695115028   -1.80215755456045   -1.50025132823861
H          -0.16508779075268    0.47349016865530    0.70368514604347
O           2.40781195353006   -2.03168672612562   -0.59111396139585
H           1.94765531734934   -2.26680952861574    0.21974779300035
O          -1.10321814599141    1.18222868967880    1.78561830761603
H          -0.62351062381847    1.28067924786820    2.61057723702553
O           1.30739785584942    2.22937707984759   -1.44058315131049
H           1.44026930959439    3.16214473275408   -1.26361110744058
O           3.19090939046921    0.49448256960987   -0.51498046680909
H           2.74193116647618   -1.10123485468227   -0.47791672904627
H           3.80477026506779    0.61571609808225   -1.24256125665728
H           2.40536164415265    1.03423640018085   -0.74317817780882
O          -1.36970784427703    1.98747903022424   -0.99715025005188
H          -1.48595075583689    2.11248958334771   -0.04909537663971
H           0.34287052929210    2.07702441831156   -1.35961083076497
H          -1.63932496393105    1.06977079672713   -1.16874557223682
N          -2.53077467932707   -1.01886343078029    1.86257565765914
H          -3.03711100523255   -1.45006766762705    2.62702272259969
H          -3.17549241533206   -0.89380408968470    1.09005443766155
H          -1.73249907524051    0.40325588112690    1.90336238674369
H          -1.83160642454539   -1.68024813510920    1.52782076644173
