    26
        -50.44484477  Gyration_radius:  2.47798508583 Dipole_moment: 4.669
 S          -0.12528694509222   -1.30062426001562    0.61164513415245
O          -1.55629751289288   -1.32573770348104    0.59911156061406
O           0.50147076974969   -1.39475934879638    1.90026163498329
O           0.37815343284845    0.02276252848163   -0.04689263519713
O           0.42581022894221   -2.35686960892225   -0.33981560946663
H           1.43846763897685   -2.19300764931591   -0.32754015953906
H          -0.16976106277148    0.81732019594522    0.21934807635313
O          -1.03994851953639    1.99506619614303    0.85824848991638
H          -0.46113026554529    2.71229825897171    1.12459211097125
O           0.03214171254570    0.57453112463125   -2.90236556419964
H          -0.15684816278273    1.34491392069012   -3.44069514147031
O           2.79653031149172   -1.56268420114580   -0.09610219864245
H           2.64719772273922   -1.17337292466802    0.77026073904386
O          -2.19421657541215    0.47179489383328   -1.33498846848873
H          -2.13644276343844    1.23922654471741   -0.75561984302451
H          -0.76280729223723    0.43560558731025   -2.34671301641461
H          -2.13380790503481   -0.29851810757857   -0.74565919597553
O           2.57952311515293    0.27389091419173   -1.98878577602259
H           1.62006363196757    0.39111122715832   -2.15081541136550
H           2.77615714054267   -0.81957717402979   -0.75748221144072
H           2.92913767397739   -0.11512358558406   -2.79334614032637
N          -1.49313801034998    0.42854416122629    2.91483487853742
H          -2.29070388656119   -0.11725081352055    2.60816445237393
H          -1.29216595267877    1.49496657076657    1.69656616130661
H          -1.62192342282756    0.64829715725418    3.89553947061204
H          -0.69017511176873   -0.19280390426870    2.82824867271530
