    26
        -50.44484475  Gyration_radius:  2.47795542106 Dipole_moment: 4.668
 S           1.11736256444778   -0.65427790820927   -0.63604689740884
O           1.62109808142879    0.04864857712127   -1.78250154222687
O           0.43190741558357   -1.88342975418604   -0.89655625295309
O           0.16275286226025    0.32467287587933    0.11822358389890
O           2.21974514108504   -0.87688878262187    0.39345730182465
H           2.57871274086625    0.06685382480346    0.57554757697136
H          -0.77181837100928    0.30301572300476   -0.24025164142777
O          -2.16426837933252    0.26307351696959   -1.02261775784315
H          -2.47601534914448    1.15870847176438   -1.16757594180821
O           2.72326634403408    1.57435523509460    0.61236695516637
H           2.38805638915738    1.78954749372348   -0.26270220033794
O          -0.73588495351381   -0.17694904909153    2.86029305665997
H          -1.54285701012382   -0.04230224079611    3.36001336414333
O          -1.60868982898231   -1.85154715547577    0.89623587514344
H          -0.86049645140275   -2.08645076448406    0.32232779139241
H          -0.95954900507102   -0.82676789232934    2.16195154716493
H          -2.19317132942408   -1.31942145959383    0.34556094124940
O           0.86221949534800    1.98849669689264    2.44741077454688
H           2.01256651052951    1.81711407671415    1.26518383531793
H           0.27247116629584    1.20602796275786    2.42394720433364
H           1.30162096972038    1.95219170452473    3.29979412638564
N          -0.85176839944207   -0.55867889618896   -3.14179495158530
H          -1.01941822913129   -0.39163486325640   -4.12703336137898
H          -0.80014340693264   -1.56102060494240   -2.99773766130229
H           0.07461253382422   -0.20340199504188   -2.90947656937024
H          -1.78231150106991   -0.05993477302119   -1.89801913653268
