    26
        -50.46163596  Gyration_radius:  2.55759043795 Dipole_moment: 2.240
 S           0.96785189367092    1.76650233197842    1.17240486256953
O           1.15651797087969    1.80356354937012   -0.25898135071495
O           1.25688515744474    0.43241885153761    1.69665516962397
O          -0.31260033235220    2.26917010148682    1.63390681369468
O           2.05469911735291    2.74239989223042    1.80308281709674
H           1.66391439675842    2.96086267386379    2.64319874386524
H          -1.46026420045420    1.30277648306495    1.07645183129684
O           0.29160179010280   -3.08834063255690    0.87921518567977
H           0.25898127715249   -2.82543525203647    1.80144162833102
O          -0.09749886195877   -0.70277651496399   -2.36755011404443
H           0.13899684415178   -0.70411682118173   -3.29541061414829
O          -2.16708761719649    0.75261366891629    0.65110644359781
H          -2.98431470753713    0.98124750863022    1.09707605323493
O          -1.03471146148627    1.61258235851737   -1.72200626880724
H          -0.21691653536798    1.88093396992594   -1.25228233947679
H          -0.49000865236365    0.20720563525957   -2.18360346094226
H          -1.66490869984073    1.40475664117912   -1.01339351840761
O          -1.68525409197561   -1.79985085722394   -0.30480265221267
H          -0.54774096332275   -2.75186555187369    0.47315482866913
H          -1.88895708721102   -0.94684987594126    0.11564917228107
H          -1.29746218230894   -1.57553205798811   -1.16183039099680
N           1.63303926876562   -1.14728481541937   -0.31651543810092
H           1.04663109066579   -0.87921534438391   -1.13928311225821
H           2.60743304494107   -1.23306350969199   -0.58201587644074
H           1.52517852168368   -0.41852399336073    0.46035172636374
H           1.24599503025817   -2.04417845186307    0.09397984041405
