    26
        -50.44484474  Gyration_radius:  2.47818764585 Dipole_moment: 4.672
 S           1.38201501872898   -0.01315709271955   -0.41350887020988
O           1.69480475771654   -1.05440685857869   -1.35169005873612
O           1.92209593309738   -0.16284556908837    0.90350341587560
O          -0.17485495330528    0.07622056676469   -0.33074036336025
O           1.74794052469404    1.35523273522394   -0.97763371947665
H           1.24119535047295    1.39645263165692   -1.86875257142459
H          -0.56179416068543   -0.56486705993209    0.33381145974626
O           0.28594012979153    1.08536535317500   -3.00235905787078
H           0.31448706668576    0.12459245825860   -2.97813275595581
O          -1.54174830903192    2.36594704554630    0.88305198381767
H          -2.32712888589937    2.50011072328771    1.41611543236385
O          -1.02707780864128   -1.74158618107588    1.30934737307496
H          -1.76037092208632   -2.21575359112543    0.91211935964175
O          -1.88931930993001    1.97884310957860   -1.78962047527604
H          -0.58156509515848    1.36172682826965   -2.60085004164191
H          -1.69687039460337    1.95988117035435   -0.82883943608315
H          -1.97153054653791    2.90773798564367   -2.01601070158610
O          -0.07973741643690    0.73605715704519    2.50414759248676
H          -0.55337820148293   -0.10259541894483    2.52094179311845
H           0.77064366320877    0.54063956640068    2.07632639786970
H          -0.93336325301578    1.83064340778227    1.43387228395578
N           1.21900914717498   -2.97783770832220    0.74770650703881
H          -0.20557538790691   -2.31219759321040    1.18246817740376
H           1.42846883177035   -2.54020312800435   -0.14836305509299
H           1.87040059043500   -2.56714255332243    1.40734634350583
H           1.42731364094331   -3.96685797466933    0.67574298680866
