    26
        -50.44835994  Gyration_radius:  2.45391418429 Dipole_moment: 4.175
 S          -0.27181725087378   -0.82280377438439   -0.88523015449889
O          -1.44777603067413   -0.89602125038892   -1.69351103365346
O          -0.16406759410408   -1.81043630146354    0.14832829177624
O          -0.18066746357398    0.60072396254818   -0.24875485766599
O           1.00468040788268   -0.86375847849595   -1.72450182452595
H           1.13329584851844    0.02092170669165   -2.25830554278853
H          -0.79734928816057    0.65587605655460    0.54497904995922
O           1.48659562708899    1.31799997385504   -2.85001373063445
H           2.30321980761398    1.22329864816812   -3.34652148855422
O           2.63810669511207   -0.03652815518598    0.49837836597985
H           2.25930643577191   -0.63509154471541   -0.15360527108240
O          -1.83382177163893    0.64363611883438    1.71398397303866
H          -2.43721819838351    1.38717741726355    1.65433683908859
O           2.07699909524676    2.34878878804673   -0.54400501512171
H           1.72283621332865    1.82453544689226   -2.01265139014442
H           1.20899586085284    2.47355352387066   -0.15262635543649
H           2.43079732239081    1.53174925918473   -0.11472772977385
O           0.75018277974051   -0.62795409511738    2.39208215308332
H           0.00635513478143   -0.05671889274956    2.60389641819017
H           0.42242445395815   -1.24164834488861    1.71228745462612
H           2.12932525943606   -0.18074402236477    1.31906073508990
N          -2.98373219984197   -1.44532065789012    0.65370480812720
H          -2.69002349952094   -1.29376633934170   -0.31075846526072
H          -2.35197649922869   -0.17544266221510    1.41660965969324
H          -3.96423585988659   -1.70000175920371    0.65523210535650
H          -2.45043528584074   -2.24202463348329    0.98233299511956
