    26
        -50.44835997  Gyration_radius:  2.45393318373 Dipole_moment: 4.179
 S           0.66569392831640    1.04205095008259   -0.07187773515993
O           0.45719067483549    2.16659736527629   -0.92834003919976
O           1.76554063578339    0.19054135373194   -0.41890511718625
O          -0.64505853683376    0.19426190490376   -0.01840613313492
O           0.82086214740180    1.45611568729021    1.39103786489080
H          -0.08439254596464    1.78328851700083    1.78765447274704
H          -0.71199601861945   -0.37675539302246   -0.84482456132674
O          -0.73969123291316   -1.16486989240659   -2.19321076004786
H          -1.57373668777735   -1.04395904030393   -2.65177578459469
O           0.51888580102035   -1.25382313132071    2.31808702574580
H           0.97222448365231   -0.43357808879322    2.09809602635483
O          -1.36464921373222    2.03360680481590    2.46334345245579
H          -1.19454735822461    2.27168578009399    3.37808242806110
O           1.00157741721283   -2.37894422754810   -0.13163420258928
H           0.66847440011692   -1.85168769176340    1.56087982370865
H           0.34417743400486   -2.44486369092769   -0.83019733618500
H           1.47523402883372   -1.54556323161719   -0.29684684272562
O          -2.02592378248958   -0.47421714337459    2.40749618887866
H          -2.24555356491319   -0.60218932006126    1.48145960845857
H          -1.12027849567558   -0.85779097278155    2.50599516124241
H          -1.73087817610797    1.09604670979513    2.47937850085337
N           1.00348876565127    0.50321943321015   -3.18761211217803
H          -0.05404765257437   -0.60199304154856   -2.68414086306257
H           0.79702586424268    1.29907411902594   -2.58478513120431
H           1.90822512303146    0.15805496540202   -2.88852845679154
H           1.09215257172721    0.83569126483514   -4.14042546800893
