    26
        -50.44835991  Gyration_radius:  2.45398894565 Dipole_moment: 4.178
 S           0.58575703548859    0.80431660827845    0.73817423263236
O           1.97970588382663    1.11586018378816    0.77644703523362
O           0.09659114232228    0.00378284118744    1.82214735077227
O           0.26102315116659    0.09354343578202   -0.61430000354198
O          -0.28007237836775    2.05970007273119    0.63837994194281
H          -0.19725790794429    2.50050969953538   -0.30121668550678
H           0.53177435992206   -0.87457372336830   -0.56060936229803
O          -2.63213322764431    0.53599668090066   -0.02449152817574
H          -2.03510097156732    1.06093794273322    0.51843702576705
O           1.04931019904816   -2.33794353182842   -0.38357468297383
H           1.62916279423649   -2.59361042385877   -1.10397026927739
O          -0.30040448498056    3.03273638641923   -1.66648989434288
H          -0.86924248885311    3.80650849273466   -1.65855100883038
O          -1.71664870342622    1.01676791003989   -2.47848482461210
H          -0.83485186266025    2.29423643556854   -2.09364952502952
H          -1.06019039149307    0.31730269852916   -2.52423016132514
H          -2.20739205646097    0.84601758958497   -1.63759634641495
O          -1.59934044500406   -1.84806372883117    0.84086292402158
H          -2.47119238182988   -0.39377586117622    0.22612660290378
H          -0.99109259376800   -2.38687101628424    0.32687813524561
H          -1.03868761330693   -1.27730986745138    1.39412452787947
N           2.51843100998081   -1.55897683973161    1.62776534827364
H           1.90320581411226   -1.57371637441877    2.43298893411625
H           3.42717477114418   -1.89878783729474    1.91923520234956
H           1.64289783009368   -2.16663553812637    0.42029025439340
H           2.60857350591733   -0.57795224534320    1.36530678678725
