    26
        -50.44835996  Gyration_radius:  2.45388049651 Dipole_moment: 4.179
 S           0.66086541536753    0.94526111011996    0.45226039695542
O           1.64246217727623    0.59162911845570   -0.53084498044184
O           1.15115915374082    1.12431463879383    1.78239021492101
O          -0.46580589701073   -0.13648356497814    0.46733982055519
O          -0.10106402489887    2.17185041028636   -0.04820776817097
H          -1.01594351603490    2.27090629512409    0.43885220752443
H          -0.05281479842775   -1.05405054249538    0.49833681419050
O           0.69800411030652   -2.41928002226730    0.61143119318391
H           0.35696594292048   -2.94702338083893    1.33650051892545
O          -2.40275456211793    2.33311613694028    0.91902774995140
H          -2.82511692129278    3.11528114716257    0.55543163767852
O          -1.18555034948618    0.73451921884312   -2.29589287715190
H          -0.61683232603008    1.35198309866515   -1.82463628095975
O           0.61917692421670   -1.31886719295316   -2.13440013579558
H           0.54691372533733   -2.04877540043412   -1.51269050980082
H          -0.65209822286109   -0.07284183909135   -2.42517782760916
H           1.17031432747782   -0.65151639051844   -1.69043758751572
O          -3.12429030651500    0.30083620189934   -0.52267476524490
H          -2.52678448759405    0.46010831713735   -1.29379044932836
H          -2.72238596495683   -0.43214787061453   -0.05006647010034
H          -2.78726787381335    1.54747306808909    0.42065621515793
N           2.83163679944092   -1.16127162597484    1.43328833827107
H           3.30584955947033   -0.85576375774454    0.59130573613397
H           1.59095732027865   -2.04881829678633    0.91679379265016
H           3.53324056299104   -1.46775298959389    2.09666988494206
H           2.37116324232638   -0.33268588727295    1.80853515116373
