    26
        -50.46654165  Gyration_radius:  2.46937150635 Dipole_moment: 5.994
 S           0.28348647800711   -0.00906647168802    1.10364770683440
O           0.62444398709512   -1.17556397241352    0.28619090014579
O           0.87713034049941    1.20510151270135    0.58318408803274
O          -1.17719597870216    0.11008052659896    1.22099392918408
O           0.77996291032775   -0.26009545028668    2.54375093304292
O          -0.49302362746200   -1.21533930398482   -2.11135406874582
H          -1.78101496181577   -1.13496739214313   -1.42071310792939
H           0.05734970596684   -1.40877365960655   -1.32175133908048
O           3.03707836521641   -0.25469890159513   -0.30953337907456
H           2.77725413951344    0.67045942018033   -0.37800659254453
H           2.18828994273732   -0.73419709213007   -0.22791536930682
O          -2.47976871262554    1.90066877929501   -0.26905836704204
H          -1.96983925478579    1.38843167568586    0.39441243540877
H          -2.51675785308966    2.79946175094768    0.06080429568032
O           3.34157804323129   -0.55201703165804    2.28423723770433
H           1.77479606750439   -0.32005494855328    2.50590410366251
H           3.57455665366344   -1.46991473543343    2.43881094053461
H           3.41401887600060   -0.40766692007349    1.30524868038969
O          -0.22675306100064    1.38626234608903   -1.82994632524937
H          -1.09488341984513    1.72615358671692   -1.56551689198677
H           0.29896460680103    1.40280026302426   -1.00444216186382
H          -0.31823117603903   -0.25461915158139   -2.27520965957701
N          -2.59258787143706   -0.92517944910989   -0.69251950953257
H          -2.05909522851184   -0.65514438067426    0.19163123744106
H          -3.20612041346700   -1.71728513681521   -0.53831035365453
H          -3.11363856772645   -0.09483585358178   -0.97453936249296
