    26
        -50.46311063  Gyration_radius:  2.57030839816 Dipole_moment: 3.033
 S          -0.58373695341933    2.18873586854129    0.16049835537936
O           0.69798865294115    1.60860458551529   -0.23283398912069
O          -1.00626228228936    1.71480953766981    1.45904769990288
O          -1.59992141748518    2.04135382595689   -0.86423905779517
O          -0.30811122433183    3.74375904802580    0.29520843398181
H          -1.18450617537352    4.06792771794127    0.47167197520360
H          -1.72447759663074    0.52231245900597   -1.30844140241556
O           2.49801800455608   -1.70540056964304   -1.16118195000228
H           2.22471788407882   -2.59255176745636   -1.39787478162787
O          -0.05994251575846   -1.97850870911864    2.22749617968304
H          -0.16729453124650   -2.89038382823016    1.95373707444243
O          -1.76529095004243   -0.44946481365055   -1.51822257629619
H          -2.52370612646459   -0.55698801685908   -2.09532897684136
O          -2.08625994092837   -0.69731881895179    1.23113681001921
H          -0.89882064698734   -1.50759987939014    1.95147266544889
H          -1.80948066100250    0.22367269343642    1.41936619650077
H          -2.04670385867756   -0.77927692398727    0.26371629682342
O           0.84344595877061   -0.06108162900862   -2.35245349596764
H           0.89627375269973    0.70418275632561   -1.75188711700719
H           1.96034061721439   -1.08875366987329   -1.73072500859414
H          -0.06541572690046   -0.38404890041585   -2.23487465585714
N           1.75056888132239   -0.42521313433975    1.05818865538825
H           1.04000642346566   -1.01713259168177    1.57206052683630
H           2.14767675841076   -0.98225031229131    0.25672343115174
H           1.28502978738704    0.42877257521847    0.63710202423623
H           2.48586388651607   -0.12815750274911    1.69063666641792
