    26
        -50.44999829  Gyration_radius:  2.60210414019 Dipole_moment: 5.574
 S          -0.72519421606939    1.82440687707830    1.51900999788461
O           0.68959814554529    1.64420547328773    1.82608330567846
O          -1.35370427600842    0.54781417975188    1.17986305738049
O          -1.02329494004227    2.91050026957997    0.62860793465753
O          -1.40806529497436    2.21494130058570    2.92191467983620
H          -1.50421417331979    3.16337072797545    2.89984532566944
H           0.00819207495196    2.17779383137189   -0.56868288131462
O           1.15834526557608   -2.31950602492430   -0.09852389112024
H           1.71500410564361   -3.08949457739623   -0.21780605272202
O          -0.66927802130858   -0.28364288876541   -3.06903998476944
H          -1.31681046888562   -0.39578244608673   -3.76500421443972
O           0.48456990165651    1.57225137566457   -1.15381461482927
H          -0.12674744247861    1.32085269957828   -1.85842128351179
O           1.83087540296387   -0.61083033478014   -1.89467593714466
H           1.45291939245361   -1.65334821942913   -0.80319895373215
H           1.13816608779543   -0.65838032867595   -2.57265853906991
H           1.66245597492894    0.25562112336176   -1.48110017351668
O          -1.47905938035090   -1.36128947725378   -0.77106872815971
H          -0.68303875002158   -1.84388004814975   -0.51058204004942
H          -1.56518317373330   -0.62012948807718   -0.14696244065595
H          -1.05573004717557   -0.69407819935507   -2.25865954160267
N           0.58237798114167   -0.86638078117062    2.06530476924847
H          -0.41604323295185   -0.61473329331106    1.83666512532045
H           0.95524481707714   -1.47006883064861    1.29378524272350
H           0.95828116387700    0.13909494770218    2.01918244571362
H           0.69033311372074   -1.28930786789476    2.97993739252601
