    26
        -50.44999825  Gyration_radius:  2.60239104493 Dipole_moment: 5.578
 S           1.33666414223833   -1.04983640921955    1.81042274456472
O           1.82930940989842    0.32216505315038    1.75130829576682
O           0.97336075946556   -1.53319150593537    0.47851629542550
O           0.37107929739054   -1.30779735550557    2.84119658970291
O           2.62328246128326   -1.93681008515572    2.19086582375321
H           2.54898996811307   -2.09899671991705    3.12755498911400
H          -0.65268599769405   -0.07838752044316    2.15211551311630
O          -1.14636650513444    0.51263664110984    1.56655264217366
H          -1.91262008933373    0.01847199566340    1.24725908305554
O           0.14739185802128    1.32953993875744   -2.22221410713984
H           0.13314860764156    1.95246611964027   -2.94933008381600
O          -3.11562799343253   -0.23944073135859   -0.43607402750974
H          -3.88426732783568   -0.77635407314757   -0.62830520760868
O          -1.61930158675394    2.10234137857324   -0.52541193067972
H          -2.37680422852224    1.50830113534296   -0.64904972665232
H          -1.26692960400476    1.81805662644840    0.33780114732004
H          -0.54157041011168    1.66355759473361   -1.55817332953238
O          -0.89561109530967   -1.26139059496235   -1.49638337161885
H          -0.31952589828529   -1.48254894598225   -0.74441544305526
H          -2.34411453338435   -0.69777215491029   -0.84740082219663
H          -0.51552605647349   -0.47260506807047   -1.90596377666936
N           2.15720158464139    0.36945489748413   -0.75106443014855
H           1.46526208258786    0.88350791198949   -1.34749535751257
H           3.09491659722345    0.38830885070214   -1.13498239495173
H           2.11751850058807    0.67273700283715    0.27904139815017
H           1.79282605709094   -0.60641401185500   -0.58637052305020
