    26
        -50.46305514  Gyration_radius:  2.55557087481 Dipole_moment: 5.333
 S          -0.21188207181596    1.06839140165720    0.43031233089185
O          -0.65139335282920    0.40353893297956    1.64780146830229
O           0.08585369641031    2.55447257713882    0.76126721618123
O           1.01002426023608    0.47699348903696   -0.10397247050691
O          -1.26875427284728    1.08686568149093   -0.58575320177801
O          -0.79192350888887   -2.93186288791292   -0.94496216193710
H          -0.57473300028571   -3.65283666405913   -0.35215007127935
O           1.15229919521619    0.50147410777681    3.58537730445048
H           0.45525041290593    0.35613342542605    2.90968378919728
H           0.71082750263232    0.89463465239299    4.34005142938621
O           2.39595882216862    1.94362119623307    1.69429593042868
H           2.15419670225230    1.46791218108653    2.51713901396422
H           2.36455645416556    1.27057127684498    0.99807487826637
H           0.99509619424030    2.51624608047629    1.17793394970829
O           1.13184076779816   -1.39742358695003   -1.93799746441252
H           1.28642722801655   -0.78992498755104   -1.18010218034678
H           0.51409792872720   -2.08536331588889   -1.59319023570146
H           0.22331969594676   -0.49790452847575   -2.62053563362482
O          -2.32044944578072   -1.26684182770407    0.46101495024731
H          -1.72528005640805   -0.77066381970109    1.05837952350039
H          -2.68992671641426   -0.58124258640657   -0.10257705316895
H          -1.39505538681450   -2.33899123513741   -0.43494377445786
N          -0.53836846013133    0.26535187202972   -2.90782965328865
H          -0.86536563334741    0.66705188162569   -1.95463575687028
H          -1.32014005168672   -0.16278904637689   -3.39303802138860
H          -0.12647690347708    1.00258573998390   -3.46964411578943
