    26
        -50.44999826  Gyration_radius:  2.60263836089 Dipole_moment: 5.571
 S           1.80588148714570    0.43197319656387    1.64983463917745
O           2.36363484510224    0.88781927476685    0.38116865557938
O           0.94097054600850   -0.73122319713196    1.45328411143869
O           1.26279219304971    1.46596741202437    2.48481241655840
O           3.05788301519056   -0.16759862964453    2.46216633067945
H           3.31655004476227    0.51977260285581    3.07035915557088
H           0.17335763332776    1.89681577855092    1.19581449464029
O          -0.44453944743813    1.90310822446948    0.45138630043380
H          -1.31565655311974    1.68184527245321    0.80555638044354
O          -0.55609082496516   -1.15346052028253   -2.25580259575803
H          -0.77970818014789   -1.41614937881957   -3.14911296291913
O          -3.06855344626686    0.65629906902824    0.33397401339530
H          -3.89761111474390    0.51574656450783    0.79110847302819
O          -1.50449159492881    1.20686383541367   -1.89817547772081
H          -2.30501032458455    1.08771557579855   -1.36257235595206
H          -0.88827927720450    1.62218895881911   -1.26746465852860
H          -0.92243469519367   -0.21524863086586   -2.14346203073909
O          -1.48863828609223   -1.48557775411386    0.45471423062599
H          -2.54448041566868   -0.17301948473883    0.44374657503885
H          -1.21543844767840   -1.55642213961388   -0.46979869334442
H          -0.69997168112998   -1.20768106936221    0.95167506027940
N           1.75807217593332   -1.18541394732805   -0.92536637779153
H           1.39367479497260   -1.40711016681587    0.03932665584999
H           0.94504127564050   -1.15455183428645   -1.58617191527396
H           2.12424119979851   -0.20617450027947   -0.67767070022329
H           2.48880504820766   -1.81648451199091   -1.23332972446773
