    26
        -50.46311032  Gyration_radius:  2.57096098903 Dipole_moment: 3.044
 S          -1.20021626000613    1.63692622232042   -1.02248080219792
O          -1.35077291086066    2.04195329957231    0.35693143440048
O          -1.30326485947378    0.18744226735942   -1.17232249092734
O          -0.01247435366943    2.17906800260629   -1.65488657375032
O          -2.43759653959343    2.22266494846618   -1.82113987185040
H          -2.27167538041085    3.15644380485735   -1.75169941707824
H           1.28456262901906    1.41318639209961   -1.15298943392413
O           0.13117254617470   -0.46394915886531    2.94792409719325
H           0.92684283654929   -0.89660360140671    3.26042126309100
O           2.05354817454394    0.90697369050849   -0.77567756387360
H           2.83878395037971    1.35976362740740   -1.08903480173220
O           0.39566709386757   -3.19729546791343   -0.30482687548189
H           1.25120775487489   -3.46259901787628    0.03491912206544
O           0.82995646623252   -1.24966105235488   -2.00083874554660
H           0.57882478169102   -2.56307820295019   -1.05190522421274
H          -0.01700171851382   -0.77214171809871   -1.93985993971313
H           1.47163202199934   -0.63135745669918   -1.61343510512215
O           0.92686742104289    1.64294357153204    1.65602147193484
H           0.42716001447156    0.40861811594448    2.55748195669068
H           1.47176601896415    1.35560189585550    0.90458916288029
H           0.07736678956676    1.92853503365178    1.25955105584410
N          -1.22701473705965   -1.44497704288254    0.88631405268671
H          -1.31067744683478   -0.71375525250637    0.12348034807534
H          -0.64604618245782   -2.23105893944239    0.49259074385058
H          -0.73556937897883   -1.04109910624644    1.73153897561302
H          -2.15304873155124   -1.77254483493066    1.13933316107216
