    26
        -50.46422809  Gyration_radius:  2.57418318457 Dipole_moment: 3.116
 S           0.85510767567107    1.73047894461259    1.27070921923634
O          -0.06285530610862    1.45458562947792    0.16193453892824
O           2.24450969061839    1.62788660082009    0.88575146947004
O           0.49473298450599    0.93718753067273    2.42936511896706
O           0.63979953955498    3.25673038889760    1.65009637181159
H           1.51248732803402    3.59963096782854    1.48806847195202
H           0.26139421664698   -0.63800391109554    2.39276348539237
O           0.16817573433517   -1.61728960332755    2.25272365383272
H           0.31356498896893   -2.01762301410396    3.11088158883709
O           0.80431624932623   -1.42939666689084   -1.90156192695439
H           1.22044724379895   -2.14313353921929   -2.38572583491793
O          -3.09174623445467   -0.10410229901487   -1.61076922043231
H          -3.69710323194685    0.61777511385416   -1.43808130286306
O          -0.75576729585927    0.91583013536622   -2.43694489819313
H          -0.14588336712508    0.17359899449310   -2.54527413851364
H          -2.31802485717459    0.29662252935717   -2.07732536241277
H          -0.47566559431415    1.34874160926536   -1.61422071767502
O           2.14270869031144   -0.95225186308092    0.29173496577909
H           2.29521799451555   -0.00512584432942    0.48804431966599
H           1.61629391354013   -1.30342449228025    1.02425654268192
H           1.42358521868074   -1.19680723923285   -1.15821097069345
N          -1.11212202896394   -0.93936093613456   -0.04019369893325
H          -2.07363788564462   -0.82309931767758   -0.42029879484277
H          -0.51286104157374   -1.35701498207767   -0.77791263393119
H          -0.71988005452416    0.03485845276814    0.12561461778531
H          -1.02679457075746   -1.46729319895446    0.83457511601289
