    26
        -50.44999811  Gyration_radius:  2.60260716532 Dipole_moment: 5.573
 S           2.30491346917509   -0.53600282583115   -0.75529812724625
O           2.48958121586620    0.04919996194474    0.56836112870108
O           1.18545523388430    0.09432977291371   -1.45453844865306
O           2.32414701425978   -1.97104120434316   -0.79628413853074
O           3.58774957400148   -0.06150673951164   -1.60154235848370
H           4.18543010658455   -0.80444299151780   -1.59039051285671
H           0.98991337561562   -1.99316011472040    0.32339870250779
O          -2.54248526341491   -1.85552934133221   -0.21545639802238
H          -3.17794575343488   -2.32631100514800   -0.75470003507364
O          -1.52981086941969    1.88633948202517    0.91056796745528
H          -2.09435123994290    2.48957696357827    1.39469357338884
O           0.17508907789852   -1.82266795373976    0.81632386832465
H          -0.55112626062314   -2.19330554148575    0.29809931204888
O          -1.54177390780445    0.26662574004718   -1.47743472413576
H          -2.21398236911554   -1.10275688010472   -0.76313329366355
H          -1.62014320914685    0.93716392649459   -0.78558174115745
H          -0.59060893026259    0.09057245501305   -1.58013891736535
O          -1.74538796475966   -0.41715629335929    2.02662698846715
H          -1.61578238448494    0.99134829679421    1.37823520361844
H          -2.32201228341544   -0.93630536625424    1.44357580009646
H          -0.87535373897116   -0.83443816397650    1.88899567125028
N           1.02688440519419    2.06626082058207    0.16411514882803
H           0.96921695872122    1.55376274098079   -0.75576444632046
H           1.66634531740921    1.34908426801333    0.64520304037233
H           1.44821412121811    2.98466835661248    0.08601456398578
H           0.06782426497119    2.09569162632139    0.58605217246957
