    26
        -50.44999830  Gyration_radius:  2.60216498028 Dipole_moment: 5.578
 S           2.00522433615719    0.92819538412093   -1.13134847235473
O           1.63944920861651   -0.44813210071351   -0.79739900355266
O           1.79352166496011    1.81533591919782    0.00739794957899
O           1.49716287173298    1.41117818432371   -2.38432884987095
O           3.60202166361646    0.85665667157266   -1.31046292397521
H           3.80283533144125    1.46104998485003   -2.02010001055582
H          -0.09140442097960    1.50094616570422   -1.67520390162581
O          -0.93176440098239   -0.84717099546240    2.26803266394298
H          -1.37665853376272   -1.01531004924681    3.09917365845642
O          -0.90845279566343    1.34978115733257   -1.17967378043262
H          -1.41160116420503    0.68072652455665   -1.66187480372794
O          -2.67760497875718   -0.94863602002468   -1.37179492457347
H          -3.13557080268960   -1.54509227144453   -1.96374728410396
O          -2.46778544847229    0.67184098419352    0.87845370486795
H          -2.87903784194137    0.09252716719758    0.21728663067071
H          -1.54516685896369   -0.23271795819328    1.74524423225205
H          -1.85712177932012    1.20718276745695    0.33931664462621
O          -0.50575344605443   -2.06942751051684   -0.31128579984766
H          -0.61986145466784   -1.83273038507903    0.61894714655508
H          -1.88477993284452   -1.43567799317700   -1.04210440230071
H           0.24755903609444   -1.54617978399686   -0.63533394265905
N           1.54692209900275   -0.02147349391379    1.72110680344342
H           1.58385613612706    0.95087347336404    1.26518958188456
H           1.71002829472895   -0.56072344605647    0.82960734918518
H           2.27245779075271   -0.16313823935264    2.41434634978397
H           0.59152540608903   -0.25988414667896    2.08055540432336
