    26
        -50.46060088  Gyration_radius:  2.48596792079 Dipole_moment: 6.138
 S           0.73857244364181    2.00274770131110    0.52965948938478
O          -0.42969794000674    2.19246668099407   -0.31880598768838
O           1.87303207519036    1.44196506196731   -0.18885565218616
O           0.44754419453902    1.27654450569759    1.74853561096900
O           1.17330163599793    3.46844599077418    0.96971693315053
H           1.87203028617944    3.30700747109058    1.59610314444235
H          -1.23379208598562    0.93741643962733    1.78137634789676
O           0.20323662191404   -2.43459262876050    1.79253947618297
H           0.58218583246422   -3.31114071348183    1.86978004515600
O          -0.22759255918522   -1.27025199905214   -2.02931836582521
H          -0.32038429790530   -1.71101981255494   -2.87468981770239
O          -2.05852385683039    0.89578900766984    1.24753546358469
H          -1.81901602020664    1.51224714957861    0.52813402541182
O           0.57512060107641    1.14256608249844   -2.48905698555433
H           0.05408700464547   -0.32647810264030   -2.24336741260397
H           1.40636136811832    1.18635915509377   -1.98709310906411
H          -0.01324365534721    1.67007875929630   -1.91297212176476
O           1.73812424270364   -1.20826889409530    0.05332971640781
H           0.87429173352877   -1.88917885003539    1.30610134460225
H           1.22331312450702   -1.35512208054380   -0.75198527326784
H           1.87857865030782   -0.24131039216049    0.09599923499741
N          -1.72554288319191   -1.47408921316554    0.24238928706148
H          -2.58519934002876   -2.00420351876951    0.15321060783325
H          -1.24576266256352   -1.37995788342461   -0.67591271184156
H          -1.92474521989347   -0.48448084667589    0.64897374469359
H          -1.05627928366879   -1.94353905024368    0.90867297572187
