    26
        -50.46060084  Gyration_radius:  2.48582483418 Dipole_moment: 6.141
 S           2.09556425117087    0.39293997813815    0.53810404300841
O           1.97246902347375   -1.04418311956150    0.33783019530218
O           1.38729770653201    0.86100754232138    1.72005548577722
O           1.76417590381695    1.16471528569318   -0.64181926437430
O           3.64148519947392    0.64092106350816    0.82041758142768
H           3.70605193533319    1.59064642561719    0.84611656320431
H           1.38682835372218    0.07116749633516   -1.90772075107504
O          -1.83656904515687   -1.19451085921736    0.99122383850991
H          -2.51795137001898   -1.71143272635472    1.42252050381893
O           1.15256092933213   -0.85808416329168   -2.12829589538116
H           1.52926333292873   -1.31113943445446   -1.34878253609418
O          -1.76088647979849    1.91352695560966   -1.55548543369463
H          -2.55595851855086    2.44620749809208   -1.51075793287637
O           0.35025140199263   -1.50874226300624    2.33152410483061
H           0.57752155157103   -0.59647462690618    2.57851025150323
H           1.00502509523278   -1.67425260214894    1.62426820184030
H          -0.99289307336541   -1.36297227587913    1.51627365763798
O          -1.06539191821386    1.56361624613090    0.95042875215761
H          -0.12696776847514    1.45896430088866    1.20514868085616
H          -1.36407396696117    1.93900555604677   -0.64652305196115
H          -1.47105212907483    0.70124957680032    1.11440412279247
N          -1.39608021829363   -0.71381559047031   -1.65834892677321
H          -1.61332337611457    0.31509328852594   -1.73706786193623
H          -1.96124292373709   -1.25735042459450   -2.30112899957129
H          -0.33815107702575   -0.82574442658837   -1.88780895178964
H          -1.56795282979584   -1.00035868123233   -0.67308636715021
