    26
        -50.46305563  Gyration_radius:  2.55484535312 Dipole_moment: 5.328
 S           0.44056723171071    1.01611059902610   -0.38154725047760
O           1.35972662171369    0.94448799934627    0.74435692338168
O           0.40670617763276    2.47896275725493   -0.89672486253922
O           0.90551448364253    0.20296925000754   -1.50944483858505
O          -0.91822353962328    0.64584748069159   -0.00107677757924
O           0.11216192520579   -3.08544978995003    0.74322201052918
H           0.15520024558106   -3.29707943886024    1.67679259759621
O           0.66619857102096    2.53547248411013    2.74546348199384
H           1.42685337665262    3.09292310162092    2.91767708508165
H           0.96239446539634    1.86941301323938    2.08807221992596
O          -1.23501216633424    3.15386135473345    0.95505061103637
H          -0.20625185272459    2.93329360560566   -0.24880239369321
H          -1.56519497675401    2.25255653662992    0.82331463683126
H          -0.66441553204936    3.10035182793132    1.75092899797023
O           2.20347108566441   -1.51175922383160    0.25712403191341
H           2.30383372264822   -1.35008888140029   -0.68520081769764
H           1.97857534854075   -0.62912703625791    0.61448199793524
H           0.91359327870990   -2.53978971792906    0.55561074257224
O          -1.97002031134470   -1.74952941699921   -0.21472925175194
H          -1.72580732755653   -0.83180159147462    0.04143389724772
H          -1.43583059633254   -1.63882153787573   -1.55684693437214
H          -1.29884971458599   -2.32471865645024    0.22439482740587
N          -0.85607713504572   -1.39613208771661   -2.47917500155617
H          -0.10567333825043   -0.69576093228854   -2.12843490704363
H          -1.44341747964539   -0.95162848638554   -3.17646317942823
H          -0.41002256385058   -2.22456322273596   -2.85947782668641
