    26
        -50.46060086  Gyration_radius:  2.48578095329 Dipole_moment: 6.139
 S          -1.05513779086268    1.92160109004982   -0.17228176355423
O           0.36987846494797    2.22106840281799   -0.15272488689519
O          -1.54457753065612    1.42195638648299    1.10384074490229
O          -1.44549780629917    1.07385115823369   -1.27981805297538
O          -1.77005872836072    3.32395103574055   -0.40310650715729
H          -2.68527382739985    3.08422941595556   -0.51119310429771
H          -0.05351662848926    0.76291096021194   -2.23250783432781
O           1.42140542007602   -1.04275216453833    1.63561983653929
H           2.00534748009392   -1.38965948152468    2.31102420599671
O          -0.99307863074778   -2.61396261224880   -1.16626401756678
H          -1.28486129267428   -3.49987851710543   -0.94734207403905
O           0.92901857013096    0.79288741922070   -2.25890439225325
H           1.09007191598535    1.47843716708899   -1.58143351023514
O           0.83958121553678    1.39138346484676    2.27881871933328
H           0.96096418728063    1.86430744622236    1.43146591352896
H           1.23968016762082   -0.08644990340823    1.89696326883372
H          -0.13051634641498    1.36740339741968    2.33504616834108
O          -1.37251600143011   -1.23644181857540    1.03453640802329
H          -1.58425249013621   -0.28212999040557    1.00386719148751
H          -1.31337988068747   -2.03142374306233   -0.42973677695330
H          -0.48515974690316   -1.28797315090641    1.41539624413275
N           1.39583159716612   -1.46173157956810   -1.06043215253261
H           2.19406483775454   -1.96431488777076   -1.43220812435846
H           0.50520241836661   -2.01093095317145   -1.19188935144942
H           1.50875134850551   -1.27851315225305   -0.04253012650056
H           1.25802906759817   -0.51782538974828   -1.58420604602670
