    26
        -50.46862073  Gyration_radius:  2.45499361362 Dipole_moment: 5.502
 S           1.20180829789502    1.58847568198290    0.88956693649539
O           0.33354728663521    2.66243972040016    1.26776806214462
O           1.30511388185113    1.37720039809563   -0.55313575681280
O           0.91116734221176    0.32463516509797    1.56484647437425
O           2.66128540332871    1.99922927211901    1.37361728215516
H           2.54363201919367    2.92283905825932    1.57046995739084
H           0.95118516961477   -1.23731907407966    1.17220060400003
O           0.92537736249194   -2.17152763813540    0.84650457681218
H           1.31604376670568   -2.70740986063996    1.53782129854991
O          -1.42206541187939   -0.94062392733954   -2.19885900116980
H          -1.54988110317295    0.02114411629221   -2.01235951546264
O          -1.36107239703379    1.50459649745968   -1.18696330920153
H          -0.41994902503500    1.69857967234515   -1.06277308270208
O          -1.70760900300141    0.75189054739696    1.46087038127196
H          -1.86992049328157    1.61591972335057    1.84741795149569
H          -1.70088158153202    1.32746729179280   -0.29348478137354
H          -0.75263572200135    0.59524737090026    1.59690658218424
O          -1.84828413500563   -1.82396974352061    0.28514251391832
H          -0.95960392149284   -2.09339262435408    0.55892727487465
H          -2.03793243435231   -1.00734978651326    0.76610037955292
H          -1.76842784982943   -1.39001639139470   -1.39398324390028
N           1.07740181716186   -1.01918181032070   -1.62233228449887
H           1.24744241389703   -0.05142767002542   -1.23226137098640
H           0.02818049341821   -1.03524993658785   -1.97151048850394
H           1.72971589320468   -1.22616610566031   -2.36961414760174
H           1.16636194997542   -1.68602993683822   -0.84088330292358
