    26
        -50.44672439  Gyration_radius:  2.50479105127 Dipole_moment: 2.605
 S           0.80119002507069    1.69046752439402    1.26288768361534
O          -0.33101759368265    1.53998978376982    0.34838090312429
O           2.06036272975105    1.38369553696818    0.62480902702003
O           0.58656206267641    0.98988913823675    2.51003656278656
O           0.83163572894844    3.24435247488854    1.60298147600565
H           1.64276536627267    3.32628585552295    2.09373498579040
H          -0.29047904257280   -0.33040338329609    2.16619106227123
O          -0.75110170693956   -1.17847778162082    1.95494159595876
H          -1.34655243240234   -1.34338370719118    2.68805125039790
O           0.61501581150280   -1.40924810245105   -1.98663088918413
H           1.26298403130776   -1.64881092883209   -2.65005229242296
O          -2.61000092419089    0.74513879663943   -1.51987086942027
H          -2.60017817497391    1.32424860638475   -0.75112470968034
O          -0.17667712121357    1.00923698846096   -2.04604875659582
H          -0.06315276967537    1.31285895496014   -1.04102217248797
H           0.17370549480470    0.03920190186386   -2.08087309054852
H          -1.22443107980381    0.93027087235448   -2.04220241651664
O          -1.84914666880031   -1.55127720963937   -0.52277877017896
H          -1.48743938575687   -1.40038378695797    0.37220493955901
H          -2.49388764130136   -0.17470116334344   -1.15398222983684
H          -1.09521312870214   -1.78828064165085   -1.07573102846431
N           1.72385719095021   -1.36965307422913    0.32022473820523
H           1.10017888612008   -1.43943473636935   -1.06447491960010
H           1.95787944203161   -0.38208125587367    0.45653305026789
H           1.01412502559161   -1.60136159412801    1.00801904211423
H           2.54901588499868   -1.91813905880898    0.52579584782597
