    26
        -50.46861945  Gyration_radius:  2.45546096135 Dipole_moment: 5.504
 S          -1.83318682921322    1.18261952696303    0.07675011116505
O          -2.76682142137745    0.53170771240335    0.94575434265427
O          -1.53743946820720    0.44732069701855   -1.15114134930065
O          -0.59047776745268    1.58312338777836    0.73559465378405
O          -2.52322683101232    2.54010119131051   -0.38603625200357
H          -3.41584667687093    2.41245070828977   -0.08153539775848
H           0.96498000480335    1.66490507825889    0.32521523568781
O          -1.15606168815555   -2.05067743570749   -0.08500505386647
H          -1.51753588997556   -1.27130582224951   -0.53315701542053
O           1.33074484243387   -2.24367843777103   -0.97197920636446
H           0.39480622870115   -2.41170349677883   -0.70391578162241
O           1.91067897815985    1.62191172212570    0.03637796159145
H           2.32121185133504    2.43222555666966    0.34056219509211
O          -0.55137079394668   -0.62152804593894    2.21487378076154
H          -1.40095381985990   -0.67856206578247    2.65914661482934
H          -0.98753283115055   -1.75973345805993    0.82712935741250
H          -0.57115626151022    0.23977283666525    1.75350753916366
O           2.08937759633117   -0.95539862629168    1.24050223344856
H           1.28460353035406   -0.97033234368591    1.77554779431442
H           1.77266596748051   -1.96002420207947   -0.13882364120831
H           2.18021471676756   -0.04541632999600    0.92257176634984
N           0.93203803089226    0.07817839882037   -1.98958292731958
H          -0.07592228683098    0.26477096604548   -1.73133718494867
H           1.07532284330909    0.18984478161647   -2.98647092732365
H           1.51528253426294    0.73006486016225   -1.44364561340414
H           1.15560545062624   -0.95063714980306   -1.65090322568928
