    26
        -50.46861928  Gyration_radius:  2.45538111724 Dipole_moment: 5.501
 S           1.10920772168915   -1.60562738953725    0.97767842788071
O           1.40022914891693   -1.32299176810302   -0.42638774583227
O           0.22619637721945   -2.71333083988885    1.18773018932454
O           0.69625175996940   -0.38144812987665    1.66288075227381
O           2.50042820497491   -2.01080031859235    1.63607952434337
H           2.36421096270302   -2.93596680265085    1.81284935796278
H           0.74941461201953    1.19666836803219    1.34595507290867
O           0.74390512046261    2.14462220718883    1.06122959482232
H           1.01825224796460    2.65535435242387    1.82383107129585
O          -1.12865184149208    1.01666244515422   -2.33322736391323
H          -1.25665739112534    0.04481421917852   -2.20987347796661
O          -1.14664685447462   -1.47294044759044   -1.43382657709444
H          -0.22682442547379   -1.65382777216457   -1.18877786916691
O          -1.91495811302823    1.77156240694286    0.10467665595620
H          -1.07934680111094    2.04413897377776    0.51071179207101
H          -1.59385540159926    1.42033304179935   -1.56483898157642
H          -2.14793750106694    0.92927697956406    0.51752167569023
O          -1.87010602331259   -0.85416102964773    1.17199496563929
H          -1.61053005680349   -1.34422552787566   -0.58921635890676
H          -2.06153591686796   -1.73892706304155    1.49268577536003
H          -0.94778069879550   -0.68515866135907    1.44726606026451
N           1.26435597983640    1.11602655533076   -1.41180703032836
H           0.27328515557915    1.12845323065552   -1.90255398923479
H           2.00838617540998    1.37019563735076   -2.05102000492490
H           1.22767489863531    1.74677789485285   -0.59694554158635
H           1.40303264979218    0.13451943825121   -1.04461599522578
