    26
        -50.46861927  Gyration_radius:  2.45532532368 Dipole_moment: 5.499
 S           0.94688378665180   -1.72471921647695    0.94446225699648
O           0.87220192548358   -1.69375922863367   -0.51480001642684
O          -0.06617600512284   -2.51876166911994    1.57220483934055
O           1.04474920851709   -0.36460562581973    1.47289630854433
O           2.33755720187043   -2.41575287585274    1.29321470310499
H           2.04997005208197   -3.24231703856609    1.66693899494342
H           1.36392758326087    1.09287303649313    0.86643638188735
O           1.49340506727222    1.96770335648762    0.42186550400051
H           2.08838843039312    2.46767422937471    0.98195816602954
O          -1.82123053702369   -1.25867735682578   -0.79810251326509
H          -0.93715518950651   -1.65382748075183   -0.76484560310647
O          -1.49657717812467    1.01289370313745   -2.11777069155902
H          -1.80215874324775    0.13306309535912   -1.78816227577465
O          -1.34050101191077    2.22560709362054    0.25638684442013
H          -1.62939212642306    1.53115361789779    0.86337875702143
H          -0.38350938868596    2.30506029052504    0.37978534798155
H          -1.61121033058145    1.61258023920365   -1.34510620374286
O          -1.58983279967898   -0.17385520668362    1.74496278862684
H          -1.97570077282318   -0.91349781486750    0.09748981048247
H          -1.87675717457497   -0.93102810652201    2.26145742577963
H          -0.61433861742015   -0.23198347728045    1.74144444518603
N           1.01723498100387    0.56182844709938   -1.86755941624441
H           1.36624522613657    1.26723276376348   -1.20138443181709
H           1.57926330518841    0.52963163896456   -2.71009615247338
H           1.02822215832122   -0.37198923469093   -1.37236320113449
H          -0.04350908105898    0.78747283986967   -2.08469209876384
