    26
        -50.46862043  Gyration_radius:  2.45523077491 Dipole_moment: 5.501
 S          -1.93227721448420    0.21590248068125   -0.99083577627482
O          -1.63930892863119    1.09067951243737    0.14288397669309
O          -2.74385815568271   -0.91862993064138   -0.66709788382061
O          -0.69848851236444   -0.12077804235288   -1.69978105175631
O          -2.77900791044557    1.09648677404386   -2.01093002842674
H          -3.63983732374538    0.69745920994548   -1.93683755407011
H           0.81470971885866    0.43174654124654   -1.72040443614054
O          -0.95306055828813   -0.81807838990516    1.98962694720861
H          -1.41532072974886   -0.13993892467724    1.47459495582671
O           1.74153540807221    0.76740452854356   -1.63210523979723
H           2.08718322435663    0.83859722044462   -2.52269049776469
O           1.48406476868529    0.15075397580585    2.34975146895342
H           0.58626351895434   -0.24634527027642    2.46080126400716
O           2.24274664493900   -1.31406987923012    0.24977170522272
H           1.47644734268866   -1.88579220179057    0.10804811963821
H           2.22503993425619   -0.66348704218302   -0.46702608487643
H           1.94474668647999   -0.46404060441408    1.73360836570216
O          -0.35507829884487   -2.32628492948104   -0.26124095890665
H          -0.48746132415588   -1.57256265173005   -0.86901934431173
H          -0.76078153587961   -1.52814871721514    1.35410404785691
H          -1.16642072762028   -2.83604079315779   -0.32566406080082
N           0.80193966292228    1.94290198665874    0.64429721634667
H          -0.20281059819775    1.68554595363693    0.43971502702201
H           0.87555143040865    2.91446571752652    0.92256089479632
H           1.14402758720086    1.25617532636933    1.44083068856639
H           1.34945587007199    1.74607815006569   -0.20696176096446
