    26
        -50.46422738  Gyration_radius:  2.57421069705 Dipole_moment: 3.117
 S           1.13902276718307   -1.73207673239009   -1.02083458414897
O           2.25459517048714   -1.84036314297862   -0.10827950110261
O           0.70965481459961   -0.34683605009699   -1.23136889245319
O           0.00176449437182   -2.56290342117654   -0.67663759851552
O           1.69440730178729   -2.23717219040270   -2.41937685364151
H           2.58749355309372   -2.46153386595532   -2.17967718156628
H          -1.03712959006580   -2.21136664253712    0.47785397369151
O          -1.60121758439522   -1.90236066212301    1.23536960579012
H          -2.02600029614773   -2.68863868516973    1.58060616551529
O           0.49391589669485    1.70346405095116    1.77702362312519
H           0.58594860833664    2.11836419020919    2.63519248216019
O          -1.76803274058397    2.57087801991031   -1.56091029819578
H          -1.87782756723691    2.51196686696349   -2.51058320255966
O           0.95386617667797   -0.86084706420824    1.98227754767639
H           0.81238482996756    0.76672219738622    1.88339712990336
H           0.09704702212201   -1.30526398708476    1.90738974192095
H           1.52526376226494   -1.23891583175069    1.28277555459740
O           0.84144889378512    2.38187804366296   -0.98571159128849
H          -0.79750704490638    2.67725678843896   -1.40619345042703
H           0.91829362654721    2.38459043339870   -0.02196721473383
H           0.99210795417531    1.45798331680862   -1.24346925992551
N          -1.33891008404003    0.56092330245788    0.12968205954977
H          -1.84885501560700    1.22572020127586   -0.48728296602846
H          -0.56189991551915    0.12579488036274   -0.45113763788907
H          -0.85807665408211    1.10230475535093    0.87352085432927
H          -1.89175836953099   -0.19956876132538    0.53834151422274
