    26
        -50.46305566  Gyration_radius:  2.55501351975 Dipole_moment: 5.323
 S           0.36589048125147    0.86167086884895    0.70594554464806
O           0.67259850030615    1.60614407213474   -0.50624382767321
O           0.29669867221000    1.85952188745286    1.89161038942480
O          -0.92249881161128    0.18292834556041    0.61811857969873
O           1.43235240260527   -0.08730255442690    1.04032934151348
O           0.34346502649461   -2.22403464497851   -2.24381846327452
H           0.00393452632635   -2.01087658877771   -3.11420905879569
O          -1.13334591984062    3.46305088144940   -1.06090868435199
H          -0.45374132554644    2.76007726750357   -0.97416484054221
H          -0.65146774245836    4.28839883617032   -1.13560871901080
O          -2.09822024985249    2.52967369661479    1.26304608154232
H          -1.95037248734402    3.02329384008211    0.42857046090516
H          -2.15874227280939    1.60014431721582    0.99649983425025
H          -0.61542687549093    2.26076731044129    1.79737789310835
O           2.09138626847360   -0.30533597654726   -1.65358487410710
H           2.57019444819655   -0.50907692366298   -0.84517242758955
H           1.02492525565083   -1.53686336415704   -2.04695753673217
H           1.56786887332030    0.48515099096127   -1.41171014784615
O          -1.29508998711787   -2.29695550815853   -0.15819600174379
H          -0.24512037335114   -2.53895989013323    0.81020758772307
H          -1.36904473988527   -1.33770547274714    0.04646992976326
H          -0.79939588912605   -2.33992119766772   -1.01043788020474
N           0.63091277372402   -2.48478562545669    1.49973954400880
H           0.99673872455371   -1.47275785661258    1.36382364262953
H           1.34681915270366   -3.15360172807447    1.23512288470797
H           0.34868155862965   -2.62264501289663    2.46415072796416
