    26
        -50.46861926  Gyration_radius:  2.45548310462 Dipole_moment: 5.498
 S          -1.24116123625565    1.78559996569199   -0.19322168251659
O          -0.48796355767166    2.91959623556412    0.25130863489597
O          -1.57055553046819    0.82828355885466    0.86084494227378
O          -0.64773417983443    1.09212117381684   -1.33588846640578
O          -2.63386928128447    2.35062724697855   -0.71702377746917
H          -2.59992876297045    3.25073099362374   -0.40997839594406
H          -0.52574285088110   -0.43701892045127   -1.82676335718691
O           0.88179775817746    0.66485447929544    2.07824238035039
H          -0.03869388649312    0.86921835321922    1.85501077876694
O           1.11599321446312   -1.93806259070676    1.65819991304419
H           1.13221675477108   -1.02404401471984    2.03300474970350
O          -0.42080644283222   -1.39881323660825   -2.03565273948741
H          -0.58980971356004   -1.48935751246972   -2.97422841806038
O           1.81316816182318    1.46378491449140   -0.40997030214223
H           0.93399232408033    1.37949938043181   -0.82824507165064
H           1.91367948852541    2.40404409119929   -0.24225231681161
H           1.40239066248836    1.00437184953322    1.33068603025839
O           2.11798736430710   -1.33471025678918   -0.74248788700680
H           1.66725930214456   -1.87454704775384    0.84464524298047
H           1.34439192455237   -1.43816966797786   -1.31544581855544
H           2.26923158913583   -0.38279208281094   -0.67073295434118
N          -1.19448365807728   -1.76102070510672    0.55585506773262
H          -0.23684168071897   -1.93434728247911    1.08153477189258
H          -1.43066316531615   -0.74016155499239    0.69513056618875
H          -1.03818347448641   -1.90563446153146   -0.45300895320152
H          -1.93567113356917   -2.35405291834014    0.91043707263248
