    26
        -50.46862069  Gyration_radius:  2.45512432689 Dipole_moment: 5.495
 S          -1.23842344194706    1.77531102704592   -0.27613461501963
O          -1.26470218988686    2.51027375817354    0.95253128097289
O          -1.90526447186583    0.47594438487087   -0.21458767524543
O           0.09750858936300    1.62982988236809   -0.85215926168898
O          -2.06175313468798    2.63599555839818   -1.33174778230521
H          -2.49602742482162    3.26542304632915   -0.76534609078475
H           0.89171164791683    0.48837876932750   -1.66627912557337
O           1.34737036369994   -0.27781613273308   -2.09605702393259
H           1.84317252955880    0.08329157629394   -2.83190406478893
O          -0.84859131767151   -0.42823849589097    2.14987475521604
H          -1.42958552023967   -0.06728282556996    1.46361400685566
O           0.25754395006267   -2.56524323850502    1.04696703366425
H          -0.20352308690451   -1.92661487483499    1.64331553147814
O           1.20841624539405    1.33173656297513    1.54161674981294
H           0.85491348125470    1.52176279209979    0.65060404432516
H           0.93389432866875    2.08039274382572    2.07686484688038
H          -0.08167719814044    0.16889062827988    2.16923881743225
O           2.35842254371989   -1.02383449034057    0.46269553880516
H           2.18598082260443   -0.78942544382782   -0.46070784261377
H           2.17903195807285   -0.22535775644238    0.97693948050945
H           1.15972612797969   -2.18553083877151    0.93870250344641
N          -0.77045493149081   -1.71172612834868   -1.14394860490202
H          -0.36234127111658   -2.18525360129008   -0.23153993014796
H          -1.29347166746587   -0.85017145304187   -0.82482380772313
H           0.02137665549186   -1.39423314829417   -1.72297632291556
H          -1.38325360763640   -2.33650231203462   -1.65475243184182
