    26
        -50.46862053  Gyration_radius:  2.45523679521 Dipole_moment: 5.506
 S          -0.56324588983800    1.21549165327050    1.72231396763713
O           0.00610295762906    1.89136036373792    0.55783645111786
O           0.37063898463074    0.97742388389879    2.78136231103080
O          -1.30141907178902    0.02508436999240    1.30312583364998
O          -1.66094825180672    2.20888069184310    2.30661248714266
H          -1.24223151311097    2.50357283038434    3.10879145686800
H          -1.87008938701354   -0.55626010576298   -0.08745261657073
O           1.69735451366972   -0.38721548025971   -2.17140557123984
H           2.15107437125154   -0.07239018957122   -1.35211150837913
O           2.30044572023316    0.41565109411232    0.27770978081915
H           1.65391830967440    1.10993093909333    0.47516670315576
O          -2.12791978600530   -0.89438862242763   -0.98115434310198
H          -3.01549227816767   -1.24315548765125   -0.89028106413376
O           0.83255979243605   -1.52585886282258    1.60950798928924
H           2.00256571358421   -0.35671420710629    0.78737589992119
H           1.16073709706216   -1.38350481743223    2.50078785288133
H           0.00413506305283   -1.00946213690393    1.56560365464901
O           0.30961736761265   -2.37193436715267   -1.04569858306175
H           1.31915881943262   -1.26011043708137   -1.91692984061714
H           0.58709810160403   -2.32098039073554   -0.12128649076690
H          -0.59441715664448   -2.02640669587020   -1.07133835786241
N          -0.42338763721586    1.03091678134257   -1.89416315053743
H          -1.20444700664357    0.36132002526916   -1.82501618908947
H          -0.28485639442577    1.45410961907643   -0.93535702134449
H           0.49841294126460    0.46338444452032   -2.12080031025367
H          -0.60536538052626    1.75125510419848   -2.58319932112832
