    26
        -50.46861970  Gyration_radius:  2.45537700789 Dipole_moment: 5.502
 S           0.85826148351228    1.75707021086793   -0.96952142330940
O           1.20896029894668    1.50134184760156    0.42607956135815
O          -0.17450175071877    2.73240818761428   -1.15055846367003
O           0.60985522290839    0.49537761947042   -1.66585394846951
O           2.16807815670540    2.36112255456825   -1.64245529344993
H           1.90339545532581    3.26190248654412   -1.79787159389153
H           0.88771967880460   -1.06418729774547   -1.37328136536942
O          -0.93879767742768   -1.19293850760478    2.33342083123356
H          -1.20306575145478   -0.24709091303315    2.22578564145954
O           1.01939516277481   -2.00691019654436   -1.10219300913970
H           1.35121484720745   -2.46449192340293   -1.87563148025096
O          -1.31812867799638    1.28046167626256    1.46981534170786
H          -0.43666932547507    1.59147917959664    1.21459535008880
O          -1.98957423615188    0.59766584951873   -1.13415383419676
H          -1.05694105014562    0.56285403875119   -1.42409743314423
H          -1.77288959028390    1.09858193213749    0.63005993400211
H          -2.30749737644058    1.45081680140939   -1.43974027091931
O          -1.65030793163880   -2.02142868644346   -0.10364586054213
H          -1.35522889748674   -1.64833545481943    1.56599244974249
H          -2.00524681235893   -1.21517193601250   -0.50125977473856
H          -0.79135924154827   -2.16973165737104   -0.52504206516231
N           1.42988619729410   -0.94485384608190    1.37762268650883
H           2.21190827926802   -1.10023473462387    2.00299478877569
H           1.46903659764611   -1.56462388413168    0.55450143974487
H           0.45811091111522   -1.10195655873643    1.88169008386738
H           1.42438606775115    0.05087319217977    1.02274771778920
