    26
        -50.45446015  Gyration_radius:  2.74379844496 Dipole_moment: 5.602
 S           1.93839224300082   -1.26065982665441    1.68530859571287
O           2.66802033332631   -0.36937381188120    0.77413105328738
O           0.99437534973967   -2.10282354764093    0.99595632878872
O           1.35676346808179   -0.50608752538808    2.78718472405158
O           3.03418789167496   -2.21206342165788    2.32730907776413
H           3.58227875499022   -1.59825706284176    2.80719010771892
H           0.17735384295271    0.45765266674374    2.37481929912627
O          -0.47382791580352    1.13576118694182    2.03652353610124
H          -0.52513749113361    1.80696270020801    2.71846371297310
O          -0.68442128429286   -1.43980923517862   -0.91106920418966
H          -0.12073517134981   -1.89443337491881   -0.24807666831740
O          -1.55770716179984    1.90310616360643   -1.73551248930798
H          -2.27996806933970    2.40798322530532   -2.11119984084040
O          -0.87599034532723   -0.21306180926510   -3.32331481512146
H          -0.28591030279824   -0.56355264787457   -3.99113565095430
H          -0.87698376777289   -0.85357064895529   -2.58947631101571
H          -1.34868504211267    1.20850657968231   -2.38701907922806
O          -2.44116223278157    0.15852453421284    0.30130441095915
H          -1.94618871295357    0.41240621799636    1.09336972192806
H          -2.27015957444885    0.85969137207243   -0.34954862387526
H          -1.47925134456303   -1.12235589729269   -0.42553980497675
N           0.69051260297790    0.78383189578163   -0.38899241666444
H           0.14045721532991   -0.04661868661593   -0.75247143991735
H           0.79503456695244    1.49422056579825   -1.10659870619826
H           0.17517547013308    1.16383927310566    0.42817771786104
H           1.61357668733036    0.39018111462641   -0.00978322568295
