    26
        -50.45446025  Gyration_radius:  2.74322002729 Dipole_moment: 5.611
 S           1.48356958556594    0.30772849145158    2.42662299207770
O           1.25865932313669    1.48343808678982    1.62494197778601
O           2.11191939834084   -0.78077481988136    1.66665457000621
O           0.29302943630581   -0.16801637450211    3.11793633835525
O           2.52624733905945    0.70261082044315    3.55578002240907
H           2.58460423972953   -0.09744606906452    4.06936458124435
H          -0.91240310452839   -0.55239418763923    2.17531640812830
O          -1.59141333467153   -0.89394872681089    1.52682800237572
H          -2.14320044500994   -1.49830979934861    2.02524097242843
O           0.29911624660883    1.61587646270544   -0.81546579485186
H           0.69915282172736    1.78090244369335    0.06594213498166
O          -1.38623586654460   -1.04334362964095   -2.46102514988647
H          -2.04655513790911   -1.19245555990478   -3.13886485800451
O           0.58762437379750    0.63573919178720   -3.32861871618227
H           1.46815103630717    0.73298350970738   -3.69226534140539
H          -0.70204097485210   -0.48338386243875   -2.87171834081163
H           0.54981313265613    1.20179834217257   -2.53683805103356
O          -2.24358680584976    0.85634249127412   -0.55686992958733
H          -2.11783218770497    0.16511419712240   -1.22835590890066
H          -2.21510786811258    0.39869112698947    0.29558430298801
H          -0.67587374230832    1.64270934214806   -0.68502831662712
N           0.43942243694632   -0.98973328644663   -0.27051289257240
H          -0.44674528658127   -1.14646039825019    0.24679140579666
H           0.41823663711323    0.00307045062637   -0.64245051122984
H           1.22675606159155   -1.02028990052984    0.45753229539447
H           0.53469269521701   -1.66044834247054   -1.02652219284800
