    26
        -50.45446022  Gyration_radius:  2.74328285098 Dipole_moment: 5.605
 S           2.70932611706542   -0.81192408385542   -0.43376316198915
O           2.74169583846627    0.34080171608289    0.47577251210481
O           1.88168885109343   -0.58009080459331   -1.59002203437594
O           2.37663480486458   -2.03063015597081    0.29133199958162
O           4.19814429778228   -0.99466495235677   -0.95169386469405
H           4.67119826395736   -1.19544983418542   -0.14963974859918
H           0.89637800387910   -2.09093582321297    0.83378243094294
O          -0.00652677241245   -2.01879126852270    1.25554784072693
H          -0.00308536960124   -2.64470403851016    1.98110320499700
O          -0.50071218401372    0.52008640244804   -1.68993041458750
H           0.37813129083692    0.12297433490790   -1.87397568522437
O          -2.59220565956826    1.02097745539151    1.14166520096189
H          -3.51903016968705    1.09343635480275    1.37280512319257
O          -1.93047368680322    2.69276922727114   -0.91717042142468
H          -1.57058997770287    3.53153906375310   -1.20690646920064
H          -1.46556948025884    2.00144585638577   -1.42184184999962
H          -2.43701355670501    1.68374368150235    0.44406082057016
O          -2.07673208069510   -1.24527192350848   -0.46105025232130
H          -2.38346105877051   -0.56097142987374    0.15709505554222
H          -1.11415729861316   -0.23217884436096   -1.52824554862806
H          -1.42498238897311   -1.76564755961302    0.03022205509448
N           0.22428592597412    0.65758497372278    0.87217415494813
H          -0.16463913857760    1.38019599996132    1.46975430936354
H           1.29453494828209    0.66386592096565    0.80018625469331
H          -0.04199274534464   -0.28429944175535    1.21807123657500
H          -0.14084679453349    0.74613919308524   -0.11933273833050
