    26
        -50.45446020  Gyration_radius:  2.74317761021 Dipole_moment: 5.604
 S           1.98274113040419    1.30723629159652    1.59519698283657
O           0.95994081022834    2.12237619108502    0.99102071983177
O           2.69219699793835    0.47523999143644    0.61462572663740
O           1.50660262802198    0.49758536613567    2.70852404279648
O           3.07352662542725    2.29136204708297    2.19518836365189
H           3.67880134530874    1.69097727315012    2.62016449981869
H           0.34812320515198   -0.50956083128066    2.34366557287579
O          -0.29237808709573   -1.20835174940257    2.02784615237740
H          -0.27150351712949   -1.89735549606335    2.69341703223323
O          -0.80579738553364    1.43003824808579   -0.82545608957669
H          -0.22192479158638    1.89340047116157   -0.18648126141095
O          -1.58296951385463   -1.93071559812293   -1.68389421611947
H          -2.30542653992363   -2.45674437967228   -2.02891878758424
O          -1.08261285253795    0.25058012575477   -3.25299947937191
H          -1.06906777844247    0.87326779396193   -2.50412757447033
H          -0.56227432220566    0.65044195540945   -3.95038041204206
H          -1.44184450093032   -1.21329117481946   -2.32857516396832
O          -2.40836530004375   -0.27735885073854    0.45026306480930
H          -1.85209458079525   -0.52807061479709    1.20167341670299
H          -1.55292659456428    1.06367879409437   -0.30025885029261
H          -2.24955759194975   -0.95379236392309   -0.22920873768504
N           0.69856845653962   -0.73993602842861   -0.45436786210273
H           0.79005924291476   -1.42520854892389   -1.19772604345568
H           1.62495678365426   -0.31304582913338   -0.12211643585669
H           0.08943778712987    0.07278345928175   -0.75858397173852
H           0.25378833384656   -1.16553655292155    0.38150932110018
