    26
        -50.45446027  Gyration_radius:  2.74300557327 Dipole_moment: 5.612
 S           2.16288629512220    0.25552507577648    1.85548367189932
O           2.10473997542429    1.18964742477624    0.76021273111262
O           2.13790739241170   -1.14239654961350    1.40564480306376
O           1.15078726278730    0.48529510639964    2.87749869690307
O           3.56734326962174    0.45412277185148    2.56695303573980
H           3.51329074611173   -0.15194712370548    3.29982344547731
H          -0.33869496900739    0.40461935108489    2.36384866500213
O          -1.25426392336807    0.22089551484775    2.00847246882692
H          -1.79505779154465    0.02846799163253    2.77571199717773
O           0.55151257544725    1.10873298316399   -1.35533463603346
H           1.23032220146810    1.30399595875029   -0.67329826465220
O          -2.33224564108029   -0.94900306526996   -1.65300396532404
H          -3.17689754204350   -0.97548927577655   -2.10421547332603
O          -0.27268336489228   -0.48524784495664   -3.39015426393650
H           0.11969012802073    0.22061743560841   -2.84557108803454
H           0.43086239050279   -0.82794450178396   -3.94202093921004
H          -1.65972327436052   -0.83513859538995   -2.34910087320149
O          -1.89371451308736    1.53160375166129   -0.37980746206397
H          -2.21293625438340    0.70980312761059   -0.78876695037355
H          -1.75983888640945    1.32112443749459    0.55543746086963
H          -0.27270981374692    1.55806446525152   -1.06014862408152
N          -0.01163019490165   -1.11641205489272    0.00093861465898
H          -0.70040622123556   -0.77200778816310    0.69702514052008
H           0.18239782863847   -0.32157120489519   -0.67345970318663
H           0.90275250680249   -1.28622368669409    0.53562192132656
H          -0.37369020232444   -1.92913370480058   -0.48779041910226
