    26
        -50.44902903  Gyration_radius:  2.62603029055 Dipole_moment: 5.784
 S           0.89036904216433   -2.00590246791762   -1.27266911395403
O           0.81131506899312   -2.44904999013494    0.11642654492052
O           1.24573144549052   -0.59142110397101   -1.35525257940829
O          -0.20726131680619   -2.41936780929050   -2.10182576133000
O           2.18742999478414   -2.75055708742803   -1.86854360407576
H           1.85465217271270   -3.50998056482073   -2.34024154501769
H          -1.24767372460536   -1.50857738079558   -1.04617536432567
O          -1.62320916440861   -0.81618531583464   -0.48409989732326
H          -1.99790486666088   -0.15489351228154   -1.07578556566762
O          -2.46637137941208    2.00441671509951   -0.66024626728689
H          -3.00700253798367    2.79362752450247   -0.62415229110976
O           0.49431271537000    1.57865217475191    1.87595421881115
H           0.75161906484800    2.41613682975066    2.26286765594914
O          -2.20360468772579    0.73102316419364    1.68105419534096
H          -2.49982345067119    1.59477110230037    0.23906421233281
H          -2.08283552738307   -0.07947914227983    1.16095396278426
H          -1.31272359362312    0.98210639725208    1.96378648999762
O           0.24844552176762    1.87582251481759   -0.67116942128826
H           0.37391075864274    1.74895347521824    0.88496478747353
H           0.52051988056591    1.02841678906680   -1.06412632879187
H          -0.71483304654608    1.95002821566586   -0.82349310796361
N           2.03110091649218   -0.46683873666216    1.08768307850640
H           1.48937755199094   -1.39348282068168    0.98569350856332
H           2.02172617512444   -0.22399874644889    0.06414301605662
H           1.47911090720233    0.25836063990075    1.60117062851787
H           2.96362204970543   -0.59258086393751    1.46401852830664
