    26
        -50.45446022  Gyration_radius:  2.74324786832 Dipole_moment: 5.611
 S           2.37060841871317    1.21616230381571    1.04295215490637
O           2.14393227507013    1.29726192053201   -0.37749769982229
O           2.33471977884415   -0.16498231476903    1.54118441600369
O           1.48880265994106    2.06947745219915    1.82778284335695
O           3.84640016643690    1.73335405968032    1.31250061873010
H           3.90467636870754    1.70067549010435    2.26267042668037
H          -0.05024597749188    1.77076637293974    1.65194635987932
O          -0.99697477307142    1.45659559759685    1.59421362253456
H          -1.43013247689114    1.79715493566018    2.37815137240018
O           0.33914113331033    0.03069985300435   -1.80314478624063
H           1.09205539874412    0.56433938088527   -1.46778680826977
O          -2.48770058865047   -1.63773698942414   -0.44253954978401
H          -3.38162968566690   -1.88910621879027   -0.67793532782634
O          -1.97588502047309    1.08175167336723   -1.00010268673305
H          -1.71812701439676    1.47437750671051   -0.15372734344281
H          -0.45532552680566    0.60850416072872   -1.74518273611909
H          -2.31657599178294    0.19753570014670   -0.78426208612113
O          -0.68565063383276   -2.42288479763516   -2.34179720237319
H          -0.04272520283363   -3.06632665854779   -2.64114312974899
H          -1.91392434545391   -2.00147730112993   -1.14151564011131
H          -0.25045191893422   -1.55269912056644   -2.38803508241954
N           0.02494487570501   -0.88521102653791    0.68047403196281
H           0.10615671037323   -0.67259913722384   -0.35522260464839
H           1.00462811880012   -0.74305094355666    1.09365329336458
H          -0.58101771881312   -0.15471667076238    1.10082300733164
H          -0.36969901951284   -1.80786520841064    0.83354052656673
