    26
        -50.46797319  Gyration_radius:  2.4727236591 Dipole_moment: 6.431
 S          -1.05366066714052    0.23282108279232   -0.34599144047152
O          -0.95227321434241    1.24445750944188    0.71432115408924
O           0.04082514913934    0.41808959073792   -1.29918684498098
O          -1.07621677284384   -1.11055781527554    0.20178886779576
O          -2.38627642177436    0.50128067373202   -1.07692802517510
O           0.03485276719896    0.43918236965539    3.06391387322304
H          -0.57782389024391    0.02235042243872    3.67152841947628
H          -0.48565022476770    0.66091222032657    2.26286783192240
O          -0.36149859071297   -1.24886143172836   -3.31780450849407
H          -0.12089632744899   -0.63699343156687   -2.58947743096003
H          -0.38755349901253   -0.71880109571941   -4.11595606677066
O           2.45597917315679    0.26630981553370   -0.23649473714911
H           2.03859171360966    1.37157856888036    0.61223018107958
H           1.68923707120335    0.28651759208148   -0.84979469326365
O          -2.53944690579528   -1.91139500778244   -1.90154026299425
H          -2.08833023152206   -2.12546514889371   -1.07063201429855
H          -2.61060769844598   -0.39337421097350   -1.47570669871955
H          -1.82945576476138   -1.88201692441275   -2.57656229165648
O           1.29298384440449   -1.41756913482487    1.40577078394886
H           1.06162323105204   -0.90447548411560    2.19508915296978
H           0.44976487747528   -1.49812064693647    0.91858451265894
H           2.25204295302190   -0.50560362115946    0.35153511373939
N           1.45769510587873    2.09516504674127    1.23021730223186
H           1.73354386746262    3.05943114892506    1.08226740246803
H           1.51051960299581    1.83567871869346    2.21536855852262
H           0.45203084221837    1.91945918341344    0.93059184079782
