    26
        -50.45446019  Gyration_radius:  2.74310962945 Dipole_moment: 5.611
 S           2.37744624114194    0.90601837247741    1.30845083307364
O           2.65529288029114   -0.43637068979676    0.78135487069588
O           1.14179371282425    0.96491934165057    2.04689608766265
O           2.47864335487398    1.90445782577556    0.25269195141484
O           3.54998045159027    1.21900580205110    2.33087361614448
H           4.31872790375193    1.21513093153757    1.76840691126491
H           1.35253188588566    1.82109587847158   -0.84885344579766
O          -1.17742218222390   -0.08553169410571    1.40490434826216
H          -0.41009903135176    0.34816163180143    1.83760892907853
O           0.69066525407488    1.64262384937090   -1.57579015576833
H           1.04347996218269    2.07091274014011   -2.35697234391651
O          -2.01363772852063   -1.28428068850672   -1.83375122072729
H          -2.77565196912857   -1.41564030815359   -2.39923381863605
O          -1.95534388014202    1.31242457326836   -0.72810840760985
H          -1.59935661329337    0.60084315626834    0.83992545501709
H          -1.11451828576296    1.69622492092790   -1.01561929498813
H          -2.05781800159944    0.49412155487034   -1.24226149765336
O          -2.38909437562002   -2.38852945896987    0.63818674233518
H          -2.21306839884985   -1.75190601257324   -1.00207171841269
H          -2.25144937894195   -3.12744640192653    1.23153723407599
H          -2.09750030298718   -1.59084303548309    1.11517251270591
N           0.48728668410897   -0.85317913256155   -0.53040045331855
H           0.47414613964528   -0.02874014503665   -1.16100600513864
H           1.43410545208399   -0.83612242455143   -0.02652767485630
H          -0.24884258562980   -0.69336622037306    0.21596682569489
H           0.29970282156931   -1.70398437659868   -1.05138030060482
