    26
        -50.44529036  Gyration_radius:  2.4866973861 Dipole_moment: 3.299
 S           1.31623645566596    1.41606482858539    1.23188077144398
O           1.24374322460658    2.42004060819593    0.15561889896918
O           2.52853264132199    0.65485275267486    1.24185057749012
O           0.10299704837854    0.61380377310190    1.21869564704090
O           1.28130019187591    2.25016616070912    2.58397666636857
H           0.45158269071753    2.71590790444286    2.53415352042742
H          -0.18750545104186   -0.96553272717473    1.48899776198274
O          -0.43424728304606   -1.91803111807396    1.57535158212951
H          -0.87390440311746   -2.00009120805738    2.42268763918565
O           0.24919497426617   -0.63022895417705   -2.13534262160894
H           0.73357603567674   -0.62046051080136   -2.96175202314414
O          -2.66518137728005    1.00850921730793   -0.19809406508886
H          -3.44291705443751    1.15364820654526   -0.74039266567415
O          -0.51721862946048    1.69552028646772   -1.38221705815037
H           0.25068209981986    2.05763494677165   -0.70658012941371
H          -0.19427086777320    0.77765676605426   -1.69911197774204
H          -1.36236641338080    1.50387461521593   -0.82365588514602
O          -1.98299954629283   -1.48159922553109   -0.60932590055354
H          -1.49305546743812   -1.76952191869374    0.18738678757797
H          -2.47139949939760    0.02869534638835   -0.24237418817845
H          -1.30376437649596   -1.35602794390265   -1.28579650607901
N           1.82536960712535   -1.55788390290375   -0.33657722176496
H           0.90030263462559   -1.00594721276765   -1.41320110759699
H           2.16635715283427   -0.76194407137194    0.20927843849324
H           1.25382215834174   -2.11299685569769    0.29230822706733
H           2.62513347390298   -2.11610975331522   -0.60776516803685
