    26
        -50.44902893  Gyration_radius:  2.6263099139 Dipole_moment: 5.778
 S           1.41511400538673    1.67085423746910    1.28366692538039
O           1.65352142745980    1.98171909902492   -0.12277645816771
O           1.22262593075222    0.23619577808632    1.48129450685968
O           0.45847765136002    2.52050482383834    1.93653553969727
O           2.82063411463524    1.96133670487330    2.01323775809676
H           2.73408490840763    2.82714609131724    2.40399784494715
H          -0.71855771897197    1.94170001999647    0.79360065654624
O          -1.25533035339210    1.37684285322031    0.21988338147850
H          -1.90859572555895    0.95185286919737    0.78594173613520
O           0.08735023966056   -1.82113334759145   -1.71309391890415
H           0.06549072838215   -2.72843984611978   -2.01903535203976
O          -3.08307292644890   -0.92884778935253    0.41505234127559
H          -3.86484958588675   -1.47673078227149    0.34365502752705
O          -2.12148027718678   -0.05697670164503   -1.92791467455383
H          -1.35849752512278   -0.63381625431945   -2.07522536290380
H          -2.86715440811275   -0.62034081857108   -0.49912653652111
H          -1.77070668641283    0.70224658439448   -1.43544494231972
O          -0.52480320749578   -1.76896360930129    0.78896049457960
H          -0.00753982683382   -1.04029448451341    1.17364299403487
H          -1.45944681418609   -1.48199166589396    0.81267830093801
H          -0.19374747443358   -1.84288394464786   -0.74052331697845
N           2.16578462037110   -0.38615778109627   -0.82515739040683
H           1.44744977533210   -0.91414189456270   -1.37243099485273
H           1.99107540254249    0.67704888237028   -0.84388589055620
H           1.95689970778583   -0.51073727884284    0.19881633358402
H           3.11527400795624   -0.63599172505896   -1.07634901287617
