    26
        -50.45446025  Gyration_radius:  2.74309145413 Dipole_moment: 5.607
 S          -0.10976472139011    0.20610300426875   -2.85127161432694
O          -1.23407271849908   -0.39198149251451   -2.17761693344745
O           1.16228800177584   -0.44410798979996   -2.51037061581513
O          -0.01550656415184    1.64819611233850   -2.66920955428209
O          -0.31330238811781   -0.03382694960592   -4.40661707498240
H           0.42840697098519    0.42928806716450   -4.78431451002394
H           0.11914641306406    2.11838912699916   -1.16918149489147
O          -1.41260463454057   -1.12243470906052    0.33815373020840
H          -1.53950343920432   -0.95434652403291   -0.62086920914302
O           0.32501742672778    2.34626286263030   -0.21842095953461
H           0.72503534250503    3.21664654235053   -0.24244692265486
O           0.84604211492904   -0.10996117678673    2.88803693222153
H           0.87392539061888    0.03739198685881    3.83419719451794
O          -0.18531854224299   -2.56688907949029    2.27920201223740
H           0.51901204844715   -1.02033051134873    2.76791765130500
H          -0.80535213183811   -2.21872126003821    1.61352480645965
H          -0.02754259615421   -3.48383005617514    2.05264496843837
O          -1.35984930908375    1.17766034113873    1.68588109889796
H          -0.60724219753337    0.86460354184533    2.21509597874160
H          -0.98145212776349    1.77277509037291    1.02287112691343
H          -1.70063332332042   -0.30362822651960    0.80178737982381
N           1.08775598990418   -0.24416969422255    0.04861626938801
H           1.26155699610057   -0.41361151030869   -0.99633263947706
H           0.15691536163428   -0.70017589720775    0.27215037019136
H           1.81956987029397   -0.58958876022912    0.66148990412881
H           0.96747277685819    0.78028719137581    0.16508206509316
