    26
        -50.45446028  Gyration_radius:  2.74324161679 Dipole_moment: 5.606
 S           2.54208897486252    0.20406471977182    1.29645878136110
O           2.14545251247602    1.27711789822734    0.42073804571551
O           2.49363079112434   -1.10772871469849    0.63763913955164
O           1.81210633614291    0.17438449630698    2.55658056337912
O           4.06576383294149    0.44275564132754    1.67002592387373
H           4.23989914240753   -0.26463774782361    2.28369358888224
H           0.24874856268524    0.01913350016180    2.41051908781446
O          -0.71362746276052   -0.20331237755838    2.26021154959701
H          -1.02889002472754   -0.56033555280395    3.09165764527472
O           0.11557409556191    1.34611557055701   -1.24353036968352
H           0.93111423526013    1.50949089260729   -0.72178081246635
O          -2.60655142952770   -0.93707295423483   -1.18091416192333
H          -3.53474126931437   -0.98640917239166   -1.41272993673226
O          -1.09580546251679   -0.00619256785579   -3.25955076175173
H          -2.14314096897036   -0.65027692161378   -1.98913677762225
H          -0.62461831941941    0.64941885135872   -2.71462828529115
H          -0.52617615278513   -0.20317895623108   -4.00368568567357
O          -2.02415563908188    1.36394373421032    0.34752118244897
H          -1.64349151213430    1.03535415172629    1.17458702832249
H          -0.63397846260105    1.65939333638361   -0.68824467816408
H          -2.38176300748999    0.58125105456715   -0.10413196198859
N           0.06003658482449   -1.09874046542883   -0.18169867225226
H           0.02486865321923   -0.19847155996206   -0.74076804487413
H          -0.36320928669520   -1.86445668509183   -0.69652721837059
H           1.08940456320675   -1.24973568402485    0.07994846016039
H          -0.44853926670053   -0.93187448745547    0.70774637040553
