    26
        -50.46305563  Gyration_radius:  2.55497316011 Dipole_moment: 5.330
 S           0.01363220458730    0.49890716874723    1.06117226394671
O           0.86319494948096    1.52525100382701    0.47585828199882
O          -0.58272633469460    1.04938680680750    2.38318453735377
O          -1.09712846104349    0.14480672457713    0.18414930582201
O           0.78414265236425   -0.69192584148128    1.43213910927232
O           1.29841093220261   -1.39377564485726   -2.54262308098993
H           1.40069284507408   -0.84575067374145   -3.32200926045512
O          -0.44078971743534    3.77033094392486   -0.04941299210786
H           0.10694983289030    2.96138496877844    0.04618774705610
H           0.03466866145857    4.46660626328006    0.40683821344812
O          -2.39450949651304    2.33237253291958    1.09827702871621
H          -1.86537115062368    3.03302744923882    0.66120874609385
H          -2.34037662777347    1.56998698935229    0.50282893089610
H          -1.33784795821759    1.62606427660091    2.06820912636769
O           2.61150893402168   -0.14220395364953   -0.59430178663894
H           1.82416875373112   -0.95134580575357   -1.83338430686647
H           2.05088509941410    0.60976171221084   -0.31563234723015
H           2.66199089648790   -0.68592801948645    0.19686754238892
O          -1.11817998347488   -1.83322608077572   -1.54075939111903
H          -1.25968171603409   -0.99633596312541   -1.04354808210589
H          -0.28525852220584   -1.68988424884023   -2.05059487357249
H          -0.64149746246706   -2.57047730752322   -0.38912743175336
N          -0.18434473972046   -2.91061173207086    0.57094308464289
H           0.22190631930211   -1.99827146459639    0.99387826593958
H           0.55982302316445   -3.58035422393917    0.40503894133454
H          -0.88426295393882   -3.29779587038815    1.19461244759347
