    26
        -50.45446024  Gyration_radius:  2.74326970006 Dipole_moment: 5.609
 S          -0.07202060748498    2.61759560020853    1.15292988093645
O          -1.10172259671996    2.57441557308373    0.10651357967861
O           1.20077531147542    2.12016346881115    0.69669343432608
O          -0.54970052860514    1.97835208352111    2.37144675888021
O           0.12295679969496    4.15315437742497    1.50255809529904
H          -0.73341049984630    4.39686312827348    1.84091179358614
H          -0.74661105123743    0.41652346410422    2.26645304295513
O          -0.66002579880059   -2.64493063579484   -1.27900799075441
H          -0.68769961784001   -3.58448540126000   -1.46386233025396
O           1.67910313493719   -0.02515692582763   -0.73973597623752
H           1.71428360043256    0.81844299044675   -0.23856139439697
O          -0.96740838494273   -0.54425192100957    2.10393345323526
H          -1.59099435156581   -0.78542526478588    2.79032924519618
O           0.98259366911823   -1.32277114394101   -3.01812261897938
H           1.45288179865091   -0.83964407918210   -2.31512113613944
H          -0.10013711265593   -2.25141327066790   -1.97310090909788
H           1.07759126110436   -0.80364530032995   -3.81716649048636
O           1.05325632693949   -2.04598311331870    0.88309974918411
H           0.49771018188068   -1.59535713139346    1.53521377798905
H           0.43918348983700   -2.40405707158299    0.22040720419752
H           1.75003600230147   -0.74512326628213   -0.07263862451782
N          -0.97631069808634    0.09098197595571   -0.53432915953931
H          -1.55825823445348   -0.33579098872159   -1.24824378516120
H           0.05262515418091   -0.01916611359464   -0.76562516830113
H          -1.14092425788245    1.14137837041837   -0.39117903419746
H          -1.13777300043089   -0.36066942455148    0.38620462258806
