    26
        -50.45446022  Gyration_radius:  2.74333764415 Dipole_moment: 5.609
 S           1.92510270205414    2.05077390089771    0.52465722662495
O           2.53577068471885    1.11360452301181   -0.42713061099235
O           1.33208929448918    1.38249194334598    1.65486527315635
O           1.01861939428787    2.96221624566510   -0.16036125829865
O           3.11677184575586    2.94038995750926    1.07827269054365
H           3.42230098880741    3.38518281261897    0.29332999730694
H          -0.28742957460498    2.28991812820852   -0.73591617683381
O          -0.16760019382682   -0.77271251037724    1.65547750334433
H           0.38977720263940    0.00547618473859    1.87426976499733
O          -1.71758200941111   -2.14407469016271   -1.23257872090373
H          -2.48027176880921   -2.66582837758654   -1.48514440988000
O          -1.02920312429856    1.79026912668575   -1.18137420489221
H          -1.34390516978758    2.36486165816932   -1.88064078227308
O          -2.42143049638049    0.00268538975822    0.46043111272377
H          -1.07754106959299   -0.42766947133714    1.50941357425584
H          -2.12340478082963    0.80130898367909    0.00182868231377
H          -2.33926643728564   -0.71644343680402   -0.18807745007658
O          -0.30110019889631   -3.33634937040778    0.77806947648283
H          -0.25010963317962   -2.52608091540376    1.31627047796898
H          -1.24797029610804   -2.66566110554885   -0.55617059962693
H           0.43697581800207   -3.88652293392657    1.04176957326070
N           0.52579670924205   -0.41500905705426   -0.89350613063762
H          -0.18077501689861    0.27617285104298   -1.21050077242509
H           0.55721149342254   -1.20871141515584   -1.52558707454456
H           1.45169429889104    0.11818027531584   -0.79759418528879
H           0.25547934952579   -0.71846870527894    0.08592702286603
