    26
        -50.45212725  Gyration_radius:  2.4531946819 Dipole_moment: 5.992
 S          -0.96177755507660   -1.00422490151533    1.83866154805756
O          -1.07073105834466   -0.91960435847894    3.24958773533381
O           0.36463884225818   -1.29156669747865    1.33143802223946
O          -1.45362880911926    0.30938697466077    1.16692845618957
O          -1.95720699205704   -2.01243248405965    1.25411218335091
H          -1.92568429768117   -1.83921550335854    0.26059976565362
H          -0.83303255621837    1.07391761263585    1.40241043697448
O           1.84304967805403    0.54003414209376   -1.73410347011722
H           2.30303375430370    0.97159947505332   -2.45443434953940
O           0.22313885821653    2.15398455997974    1.71121983002812
H           0.27564124705999    2.25207710720285    2.66420433365343
O          -1.71400984388630   -1.53736958007319   -1.25491672984945
H          -2.15607890920944   -2.21756879165327   -1.76728299439237
O           0.83461828372047   -1.96521749579533   -1.22789628023289
H          -0.72678169298813   -1.71021748183308   -1.35198644196392
H           1.31403535998155   -1.17329812841588   -1.52851188798374
H           0.83395936192594   -1.90331085188337   -0.25535695218206
O           2.20450523218918    0.65319918218872    0.99603417569969
H           2.26268981267976    0.64451120036397    0.02412208186865
H           1.06776993076130    1.68435638425959    1.43188973946308
H           1.72027795528909   -0.15974162597625    1.22640680666906
N          -0.59377782679592    1.54646292384525   -1.41605757366100
H           0.93148581142598    0.95198103729717   -1.67209874610606
H          -0.53234416201022    2.16868023665546   -0.61794770032022
H          -1.09557505609374    2.03007057928347   -2.15055102228520
H          -1.15821536838469    0.75350647500047   -1.12647096654640
