    26
        -50.45730956  Gyration_radius:  2.44912580897 Dipole_moment: 7.979
 S           1.47585049778152    1.53566760760091    1.14962558959644
O           2.22494681899487    2.70571106161487    1.44134648851192
O           1.53695563722497    1.15639028200655   -0.29601283829320
O           0.08811972923798    1.52829785040163    1.59209807965542
O           2.13880990306055    0.29049327668754    1.88048258708337
H           1.38429502173924   -0.31441372157012    1.98125514185367
H          -1.22528523263789    1.64051814767231    0.76354634364384
O           0.18693818254205   -1.59198258578516    1.79427244854413
H          -0.07744375470642   -1.87454325493295    2.67028002430561
O          -0.72463119606077   -1.22434597458170   -2.19656616615023
H          -0.94556320155241   -1.46981046479192   -3.09510794304210
O          -2.07149932160147    1.62752140185162    0.23140746011611
H          -2.65779606640697    2.25216217663361    0.65946557318113
O          -0.52374653474109    1.33289785975419   -1.98861883298394
H           0.30160679376769    1.42390009159778   -1.46861491190164
H          -0.68086372280124   -0.21214972559026   -2.18246307512620
H          -1.22738625366320    1.58363680717979   -1.36538218139048
O          -1.92662792196490   -1.08718638970119    0.34793690139526
H          -2.11312115042770   -0.12873429835008    0.36621417421889
H          -1.67042170190274   -1.27968151881301   -0.56590922131841
H          -0.65895929745202   -1.35259207469218    1.31431827311025
N           1.44842322348398   -1.34502125763048   -0.61502086888071
H           1.55020122263723   -0.23903294569296   -0.47919581523860
H           2.32469627672633   -1.74973260257712   -0.92369248865603
H           1.15871673716590   -1.72521518039483    0.29567086828406
H           0.68378529155516   -1.48275454789609   -1.31133560051645
