    26
        -50.46788079  Gyration_radius:  2.39870177045 Dipole_moment: 5.648
 S           0.63445031138538    1.09259208664281    1.28978342927962
O           1.18795558645950    1.34964388882993   -0.06064591845754
O           1.64653391664711    1.15682043245313    2.30915676989038
O          -0.06679094645046   -0.18665261324619    1.28414171262539
O          -0.42411710141146    2.20796439613336    1.55134369877441
H          -1.16250570977783    2.04854665381621    0.91597934280641
H           1.40631978166642   -1.76829326407190    2.42317225171611
O           2.23118598782801   -1.41608745438651    2.07606929783170
H           2.17512897359117   -0.45215710752978    2.27459316178771
O          -0.42289261199367   -1.51288602522460   -1.93059375701923
H          -0.49357899796198   -1.87147164720720   -2.81615739475830
O          -2.43851899625636    1.65345608723231   -0.10574076683964
H          -3.24459824096588    2.00366491439520    0.27709928911418
O          -0.52336598228843    1.09398280710313   -2.05617184373635
H           0.16484526363373    1.31326705438164   -1.38996705320803
H          -0.49751932498252   -0.51885647589175   -2.02613105080344
H          -1.34009849956124    1.44434158872271   -1.67833654600847
O          -2.29345033752594   -0.93738200534454    0.15102568618871
H          -2.49339211396929    0.65674585895932   -0.02106798294896
H          -1.91524661452043   -1.35383510747392   -0.63465816264119
H          -1.51072379692057   -0.76989528613392    0.72143880704181
N           1.89350319247075   -1.07785575694721   -0.53257175345835
H           1.03862931069642   -1.47935342882696   -0.96905067489487
H           2.72036567586474   -1.26239770603770   -1.09119189496433
H           1.70382511599426   -0.02358394629218   -0.43661175047753
H           2.02405615835478   -1.39031796406282    0.47509311315860
