    26
        -50.45872257  Gyration_radius:  2.53229346566 Dipole_moment: 5.626
 S           1.76639271910434    0.92051649731570    0.08484051751284
O           0.94600464621409    1.21691413775417    1.26340071968832
O           1.01397433048340    0.17752516350255   -0.89881433094930
O           3.05416780243080    0.35014657043245    0.39284415559303
O           2.04153587776738    2.36179084583592   -0.54583975747300
H           2.67381246861758    2.18611741636681   -1.23562525177128
H           2.90175257234975   -1.32139665389532    0.31770459484402
O           2.71114164096264   -2.27051837734796    0.47811934601875
H           3.40796146252017   -2.58173317491285    1.05962663799180
O          -1.85192368248299   -1.44611980045750    0.61941023794041
H          -2.38743099967574   -2.06079711152260    1.12248906857952
O          -2.17151903799735    1.67728423327677   -1.91204062661321
H          -3.05186054793188    1.68140402880392   -2.28999944837988
O           0.48724292812439   -1.42984291328671    1.71765490564908
H           0.73311188377025   -0.49069089717753    1.69367776101671
H          -0.91926030154609   -1.53379312778462    0.98453266947454
H           1.20991858849518   -1.89587413598888    1.24388696355943
O          -1.19062020459426   -0.74278591194127   -2.06246991889743
H          -1.53149888126405   -1.21106979522121   -1.28819746116195
H          -1.77816081453067    0.78622051016792   -2.12967401090943
H          -0.28273742283432   -0.49595066909536   -1.80509804331531
N          -1.57321422348080    1.24046842440075    0.64556460498720
H          -1.77994087108446    1.56983158050365   -0.33332772823933
H          -2.08865740100441    1.77965594606989    1.33326577846467
H          -1.81767073253143    0.22348914659019    0.69508230077363
H          -0.52252180988148    1.30920807750882    0.84898629559957
