    26
        -50.45872256  Gyration_radius:  2.53249380566 Dipole_moment: 5.622
 S          -0.39585427507720   -1.94261014659207   -0.21443470115835
O          -1.53258017596181   -1.11120704391021   -0.62255099857710
O           0.64311782711507   -1.14212284904651    0.39007580753154
O           0.07557031590237   -2.83906923738441   -1.24045752541333
O          -1.00297737471267   -2.85402844180836    0.94803879774204
H          -0.30750202558536   -3.47911778201057    1.12698252904541
H           1.33275462476178   -2.07182353016172   -2.04908107716682
O          -0.42835318146020    1.00344407037377    3.16211318639126
H          -0.35701458732585    1.73697220684164    3.77426365242407
O           1.89576759643536   -1.50702828337269   -2.62084240863102
H           1.88641974142098   -1.92083431355376   -3.48642804743226
O           0.31466854689977    2.34134729277759   -0.56896119499796
H           0.34390938537661    3.14882355773737   -1.08354780926857
O           0.04567621956211    0.39835431800992   -2.25141652557500
H          -0.58644168270997   -0.18967216135389   -1.80682043628883
H           0.32378453260481    1.59058516736764   -1.23763383372541
H           0.83521156313681   -0.15874893524805   -2.42493424016152
O           1.64856480729310    1.01501594701522    1.57231673228622
H           1.47509079486121    0.13984447540559    1.17810571425752
H           1.43063805954735    1.63553761294969    0.86345297300612
H           0.44708215468824    0.95082398221160    2.68573787886655
N          -1.63743976294710    1.06154663253793    0.79058075935020
H          -0.96385047713511    1.68226857668066    0.28334458186491
H          -1.29052813881933    0.95696177190856    1.77963688588210
H          -2.57896519725635    1.43881362874745    0.76733055457420
H          -1.61674927056163    0.11592346391245    0.28512875518132
