    26
        -50.46305555  Gyration_radius:  2.55462088226 Dipole_moment: 5.321
 S          -0.47843668322365   -0.12466693079885   -1.06201459446397
O           0.61541757257848    0.70182101644433   -1.54985494810415
O          -1.04251107806129    0.39382934002251    0.17944088250916
O          -1.60435920447288   -0.13020555039666   -2.12892380820033
O          -0.06796534424038   -1.52317561959333   -0.90262009097193
O           2.28859736001237   -0.31581905048730    2.17743096769552
H           2.80313887509510    0.46749686705635    2.37718010374493
O          -0.11362487154203    3.20254931801404   -2.03100903375049
H           0.26243549582185    2.32123427278400   -1.81795568682391
H           0.12525907710689    3.37826311316342   -2.94263708857683
O           2.55288142008891   -0.71213160071606   -0.44128637851259
H           2.42554672100281   -0.48739042642048    1.21452834408795
H           2.16444218724120   -1.55106896345404   -0.70503260970099
H           1.97943927171443   -0.05127302938179   -0.87927854751561
O          -0.33075760941245   -0.33142727255121    2.59993808093292
H          -0.53343956221169   -1.65130232338816    2.03764662079000
H           0.65244595065644   -0.24985783442698    2.57634838559592
H          -0.64593187660446    0.14266376021433    1.79785132684319
O          -2.47035107368230    2.14070298094726   -1.30898737522296
H          -2.18434234577332    1.80169235731657   -0.44759587751874
H          -1.74983770423183    2.74044894209200   -1.59706630019867
H          -2.06997882919226    0.74178848557722   -1.97173538524677
N          -0.63157768350528   -2.55063545534240    1.38402553804222
H          -0.42682499314083   -2.16461376910176    0.39131844828234
H          -1.57159481007538   -2.92996868138339    1.41925603056562
H           0.05192971820522   -3.25895394613166    1.63103298577472
