    26
        -50.45872256  Gyration_radius:  2.532405249 Dipole_moment: 5.622
 S          -0.59301135139517   -1.22591912127635    1.45642078654569
O          -0.81315682861983    0.15312457824964    1.08827213009673
O           0.47360502421371   -1.82425468965362    0.64756450673642
O          -1.79710709159031   -2.01630631592003    1.51961271029938
O           0.02423023765633   -1.21097310857340    2.92933922559937
H          -0.70819317953317   -0.94212802083731    3.47496497925827
H          -2.83193845637593   -1.46525522588637    0.31603305033077
O           2.16299129110644    2.29096865513058    1.12272119471961
H           2.68505062209285    3.06176804885036    0.89644141150047
O           0.47581812128008    0.82655350799699   -2.23482420287472
H           0.56174423948123    0.85071556220417   -3.18860641707971
O          -3.29602133878555   -1.26268367938924   -0.52448410793396
H          -3.84585492777800   -2.02686279125468   -0.70957019680288
O          -0.18417644577954    2.48748794330695   -0.01454174987463
H          -0.06714951951716    2.15169275253515   -0.91374379946686
H          -0.58727646663441    1.73894860720226    0.46362351381141
H           1.23567353453010    2.47834287594732    0.80477110026341
O          -0.86978934311874   -1.30483303859514   -1.66501883367775
H          -0.41688387279239   -1.64465427193050   -0.87607733705356
H          -1.80537773940659   -1.18627663738266   -1.39207664513252
H          -0.14204009399579    0.05885980726898   -2.03541302245505
N           2.09211707437795    0.00109206766155   -0.23410882200781
H           2.21268925874537    0.82618540591319    0.40947378293997
H           1.45618588559103   -0.73518316887602    0.21710102276252
H           1.59219649494834    0.33835525472192   -1.09008373535180
H           2.98567487131052   -0.41876497742907   -0.46779051518252
