    26
        -50.46163571  Gyration_radius:  2.55488866575 Dipole_moment: 2.215
 S          -0.12893638926881    2.04778456865613    1.09280925142824
O           0.21750151385444    0.89910073729893    1.92827468658751
O          -1.25435747118990    1.73742663141131    0.24238731070554
O           1.02667816750942    2.59249089849490    0.40498033627416
O          -0.60703549392277    3.19692826603797    2.08420186346648
H           0.21677723484291    3.60871435146699    2.32521497252931
H           1.59769851626662    1.45871494482858   -0.56931067860248
O          -1.45358533992971   -1.28742470013221   -1.53803049481253
H          -2.25582461753625   -1.51285737939197   -2.00963378536224
O           0.82828571202014   -2.73439881426386    1.48469751747363
H           1.43443398884624   -2.23219672821697    2.03363818485925
O           1.88627359095637    0.78215455525308   -1.23432611496242
H           2.74465426763007    1.07021597299496   -1.54938802918285
O          -0.67175975368300    1.06686558116272   -2.24596218911100
H          -1.17657964041220   -0.38085054913889   -1.88071214490890
H          -0.97042860573120    1.48703074857584   -1.41194175996103
H           0.29371633646120    1.01374069167977   -2.15891235965916
O           1.24989912111524   -1.89951564667225   -0.98515040536173
H           1.10448107645140   -2.55895206774749    0.54923857513248
H           0.35569028347650   -1.88331704964778   -1.35275914089594
H           1.56168224371104   -0.97920057760046   -1.02802556592265
N          -1.22904190112831   -1.10530920586700    1.16567563066643
H          -0.71770151337004   -0.21179957032678    1.45867500832384
H          -2.09615553723167   -1.19745790557986    1.68231125468880
H          -1.40969315480441   -1.08951063978352    0.13612563028267
H          -0.54667265487113   -1.88837709350805    1.37592246634476
