    26
        -50.46709007  Gyration_radius:  2.46696394511 Dipole_moment: 4.123
 S           0.59574038832334    2.29955085867762   -0.21449221673322
O           1.54227664121995    1.30221597448826    0.30932704656892
O           1.22141042784993    3.43845407420867   -0.80024413725567
O          -0.19945949364096    2.83084005941786    1.07312296558154
O          -0.41818267946349    1.63515981883021   -1.02318126592267
H          -1.45737999681661    1.02682281396638    0.05338758566834
H           0.28770618886197    3.62594749773100    1.25718320239612
O          -0.43264417572074   -0.63061325313450   -2.49140169605321
H          -0.56046255273748    0.29218764265245   -2.20697570144090
O           0.52866090582948   -2.42612346307555    0.99981376885496
H           0.77830196697158   -3.09448329781841    1.63798630561925
O          -2.02899344051243    0.60530765237800    0.74122719324319
H          -2.58990207300314    1.30486860734250    1.07847659119565
O          -1.78646841070073   -1.85632268791828   -0.54714837275412
H          -1.08147203231703   -2.24331102025033   -0.00853235401919
H          -2.08716321698190   -1.07324771712518   -0.06194726962923
H          -1.06897855262610   -1.15432203894095   -1.94754856745638
O           0.19378677048736   -0.11934289355955    2.12678111647505
H           0.77559775726770    0.46640529087606    1.60348374782397
H          -0.70801355806078    0.12785237860357    1.84848981116244
H           0.39285869528080   -1.57434727333148    1.51759201235151
N           1.64947323607089   -0.97283465865793   -0.99591289288852
H           0.84803824861319   -0.89284563594914   -1.72800879801141
H           2.53950185864175   -1.19463377164701   -1.42671630127209
H           1.69206549180951   -0.03586649757866   -0.50177537879416
H           1.37370158535443   -1.68731846018704   -0.29298641470662
