    26
        -50.46709006  Gyration_radius:  2.46697353751 Dipole_moment: 4.122
 S           0.41784586924765    2.17518258305269    0.88492947122645
O           1.45162733111630    1.12815414192407    0.88900007387541
O           0.93872787173276    3.50189070670992    0.90076550723143
O          -0.37201679392120    1.98139815904346    2.26731837069137
O          -0.57020671920529    1.88393905859128   -0.14578850098904
H          -1.52658083158446    0.76388859257130    0.51710971896088
H           0.06057425061339    2.63642808032288    2.80316063014527
O           0.73795631398749   -2.56173092278162   -0.24211400126206
H           1.05760796352634   -3.42722420040920    0.01287024530031
O          -0.46532748036144    0.56720334718152   -2.50066544975233
H          -0.65150011797797    1.23850128715266   -1.81987907684120
O          -2.04328892306852    0.02661317455417    0.92579149014284
H          -2.64417291779751    0.44171060691128    1.54576461551384
O          -1.66161879669807   -1.52584157800576   -1.35906899948408
H          -2.00310222383774   -1.08474978274656   -0.56666058910548
H          -1.04340604405052   -0.19846254356800   -2.26704452708390
H          -0.91323652606462   -2.06116459934504   -1.05872143999773
O           0.27043762238201   -1.07786778923800    1.82744470164947
H           0.79034500177386   -0.27152056087597    1.64052146731595
H          -0.65564369107254   -0.80292824620563    1.69128821493145
H           0.55648579607836   -2.06200731907935    0.61193580494682
N           1.68349058555010   -0.26302637349551   -1.32499918030072
H           1.67311019028140    0.33705947299404   -0.45113743671235
H           2.57302817378777   -0.18729885082463   -1.80449714264994
H           1.48370228092708   -1.24179232622239   -1.03724514068260
H           0.85516180463125    0.08364587178698   -1.94007883706624
