    26
        -50.46709005  Gyration_radius:  2.4669621845 Dipole_moment: 4.123
 S           0.59090350162654   -1.06703800227561    2.04958082187448
O          -0.64033096765498   -1.41707567219920    1.32390116460371
O           1.08663632995399   -2.11101795234410    2.88391779322869
O           0.16790662393081    0.13251158903370    3.02660902021045
O           1.54913324421813   -0.46922990379610    1.12875557619013
H           1.05574120035003    1.06054075114972    0.97032173165805
H           0.02115115887577   -0.34898314611285    3.83278443131551
O          -1.84277347818975    0.52066276613155   -1.87034944010423
H          -2.69129518124675    0.75145270119668   -2.24851294510565
O           0.68128706185315    1.96607620610263    0.83863573154748
H           0.93604704207567    2.46869501017693    1.61337550003805
O           1.98657631270726   -0.72543676426071   -1.52294896640381
H           2.12576720068705   -0.66081147338323   -0.56104694275423
O           0.77848987358594    1.61832047555837   -1.92687186099718
H          -0.14122441111656    1.35976518445773   -2.08219093419850
H           0.80615757348429    1.95572367294353   -1.01888782975871
H           1.72673914159272    0.18483418283816   -1.80369150937703
O          -1.81366021441140    0.89910713423996    0.69072114139357
H          -1.03965316106250    1.48004032132291    0.81426999274615
H          -1.90555463813378    0.72054959566922   -0.88638514785967
H          -1.52141611888053    0.03285848873243    1.03662677507576
N          -0.39835294290824   -1.69502335752463   -1.27521920881383
H          -0.50954170678428   -1.67558146796662   -0.22112975826635
H          -0.60016754970681   -2.61765898913050   -1.64257875438414
H          -1.03464482838867   -0.97511830382951   -1.67229298705215
H           0.62607892353588   -1.38816303671099   -1.47739339478978
