    26
        -50.46709007  Gyration_radius:  2.46695535696 Dipole_moment: 4.124
 S           0.41806283162030   -2.31629010621027   -0.38583373910267
O           0.98390502425204   -3.45186742129743   -1.03542610480315
O           1.40838505771640   -1.45254506097946    0.27617431359683
O          -0.49671042297252   -2.88304486651619    0.80353666595014
O          -0.48569824859128   -1.50063145085283   -1.18669175433176
H          -1.53686970534466   -0.89729695774332   -0.11891938593814
H          -0.08856171423577   -3.73010682335760    0.94249642236293
O          -2.11391346625992   -0.48726892108596    0.57131599648411
H          -2.74996950406379   -1.16147499100699    0.81345013953988
O          -0.22335735884760    0.87356053320297   -2.44521489942253
H          -0.44362799841770   -0.05533306687090   -2.25174117021242
O           0.66164880324814    2.27808312729353    1.24006055258980
H           0.92455064861404    2.86607625760081    1.94816006250009
O           0.06976151501776   -0.07768975002571    2.13638039168054
H          -0.83006771385867   -0.22130959949038    1.78783604052094
H           0.63330709434052   -0.66550985515143    1.59571330846013
H           0.42473588235262    1.40067062329284    1.67144063656922
O          -1.59109719832769    2.04391302602168   -0.47669978104777
H          -0.89179663231880    2.32133201384300    0.13233067685008
H          -0.84744913366778    1.40281583157780   -1.89263723265261
H          -1.98452086071306    1.25182212251846   -0.08066288243749
N           1.78236022381128    0.90651176244519   -0.81277362931052
H           2.71268396126869    1.08570018521881   -1.17238884828422
H           1.52256449785363    1.58043989009154   -0.06514214954367
H           1.02436448423318    0.95837706628077   -1.59211706824712
H           1.71730992329576   -0.06893356879012   -0.40264657177394
