    26
        -50.45646153  Gyration_radius:  2.53586637321 Dipole_moment: 2.898
 S          -0.18096089302436   -0.09587818724725    2.09827949154432
O           0.49298426507132    0.73006744107000    3.06812888455284
O          -0.94145172624660    0.69565048056355    1.12276943909022
O          -1.26185233384591   -0.95641492362577    2.87967939966909
O           0.68474004869369   -1.04949003182952    1.43560768931869
H           0.21108946449473   -1.75145038325156    0.09037328265227
H          -1.67128580824313   -0.32661101814853    3.46560867389658
O          -1.79980392902931    0.55010949608971   -2.99331148900623
H          -2.31072033191369    0.13924355778610   -3.69111125664188
O          -0.05397306967739   -2.14043714705854   -0.78376626906294
H           0.29762118550294   -3.03151585135613   -0.79575088745374
O           0.78075321723422    1.70715473727620   -0.43996526163512
H          -0.00322921346122    1.41763760854718    0.13213650709954
O          -2.41140249938866   -0.65529037569323   -0.70067170981894
H          -2.03887543155778   -0.10009546727385    0.00770935897921
H          -2.15141588813209    0.18963682926924   -2.14257572669184
H          -1.78840908355833   -1.39166326075867   -0.78550679007868
O           0.69541942209558    0.00540051271963   -2.27800139949573
H           0.49927198098997   -0.83136412435713   -1.80996307739416
H          -0.15554186598775    0.26051596513754   -2.70722415721408
H           0.80070323395544    1.02606650042864   -1.25021363325078
N           2.54399339740484    1.12284180483714    1.25153549069182
H           3.33007311484451    1.72584811661895    1.45905383125410
H           2.87725354444680    0.18143769819240    1.08315058452174
H           1.92274139001879    1.07436577674763    2.06744067087133
H           1.63227781931327    1.50423424530308    0.21658835362922
