    26
        -50.46709006  Gyration_radius:  2.46699783191 Dipole_moment: 4.125
 S           1.54031593547448    1.77187008964888    0.42021736480333
O           0.95780749478430    0.97890314382730    1.51428361316255
O           2.79759035244174    2.36225873442733    0.74022073581655
O           0.51385089102360    2.98387508988305    0.19634076887740
O           1.48421538041340    1.00990758788185   -0.82063442271882
H          -0.03796673949435    1.18539445181880   -1.33176705661099
H           0.94206001560813    3.66448335215376    0.70307636302047
O          -1.82575329024578   -1.72484504894709    0.92631269234490
H          -2.57697728364435   -2.04973114127356    1.42270305264579
O           1.49144840779520   -1.63114596446240   -1.38194224881602
H           1.68844328845166   -0.67743307564341   -1.40155217473175
O          -0.99444283198979    1.25202665003669   -1.57308214900463
H          -1.10499500945343    2.12025009102970   -1.96260248672843
O          -1.13699279728822   -1.52220288965767   -1.82387850905146
H           0.57397445903269   -1.70829185257399   -1.73858795791228
H          -1.50787982748108   -1.73647579533954   -0.95590307591175
H          -1.23001101381379   -0.56234882611181   -1.91897978844620
O          -1.66763520732908    0.85732170028670    1.02993496270301
H          -1.64177485719703    1.10969510650857    0.08786785986503
H          -1.85181235287183   -0.72145275614235    0.99411265889079
H          -0.75434840470528    1.00815063473705    1.34395524679472
N           0.87563251048774   -1.61659738830774    1.13001084311113
H           0.97432240538197   -0.58429688795474    1.35029507054360
H          -0.13615261311162   -1.85189515640567    1.17056758171032
H           1.20981163015007   -1.74008934828663    0.10159928047518
H           1.41726945757887   -2.17733050112948    1.77743178517795
