    26
        -50.46365344  Gyration_radius:  2.41762764745 Dipole_moment: 9.111
 S           1.70233827076820    0.43806921142457    0.92119803277479
O           1.41605652015446   -0.55097606790307   -0.11728514829745
O           2.66287345511281    0.03461786237908    1.88909832558961
O           0.42286607391688    0.88488290993519    1.53835251836686
O           2.23297371015309    1.70749911609922    0.15551379121413
H           1.57125516710636    1.88599419894717   -0.53749051652991
H           0.31937366489970   -0.47132914785809    2.62898056439388
O           0.39940635106670   -1.37483427641047    2.97721948902437
H           1.34707417865752   -1.49236032501699    3.09118605637401
O          -2.05039902888495   -1.24137265531125   -0.87197905210087
H          -2.85548724548452   -1.75990691337140   -0.87540488334264
O           0.35458229642554    2.10778242903602   -1.81210299880513
H           0.75527322228958    2.64868181145741   -2.49424040210477
O          -0.29359057983641   -2.43119262334682    0.58357114786761
H          -1.39627082931243   -1.75107175851825   -0.29121285094069
H           0.46522499722358   -1.90226565338931    0.26077305692664
H          -0.26998571654346   -2.27236924106392    1.54699633157251
O           0.19701889343453   -0.39568860329393   -2.43950347846996
H           0.78945767065844   -0.59971977024170   -1.68409330181087
H          -0.64824429467311   -0.79833908696210   -2.19845404691277
H           0.32028594902320    1.17097624069232   -2.17382564159321
N          -1.52403216154203    1.24446130255446   -0.03023248997341
H          -2.27956749100230    1.75386628093509    0.41410664089739
H          -0.69610869640989    1.07515612757488    0.68911628919626
H          -1.84006321843208    0.30468795016722   -0.37336216498852
H          -1.10231116876917    1.78475068148322   -0.79692527832873
