    26
        -50.45646145  Gyration_radius:  2.53588299052 Dipole_moment: 2.900
 S          -1.48926993291145    1.23771570550818   -0.83363927763276
O          -2.79272562824334    1.51873049442577   -0.28672944877718
O          -0.40780412848159    1.56595351038373    0.10401123564536
O          -1.27983864732683    2.20334324094203   -2.07579809765626
O          -1.34487900285427   -0.10919475260148   -1.34624064387495
H           0.10349454110797   -0.70617199359594   -1.61601112288912
H          -1.59129943442971    3.04670522452819   -1.76063716895574
O           1.00671277459115   -1.10437864732063   -1.72204071047341
H           0.95374711086071   -1.68509616492754   -2.48213838015344
O          -0.43470697772405   -0.26312909698417    1.86032429873932
H          -0.34481002701119    0.55239603233974    1.26652735697593
O           3.31599847046285   -0.03651217346488    1.22652168731041
H           4.23801798440550   -0.15712215591643    0.99815451787477
O           2.13205548932200    1.26251769775684   -0.77180125695797
H           2.93804697125956    0.57113677341826    0.54439681377865
H           1.94274014346301    0.48728051562514   -1.32012884934403
H           1.26164614869007    1.54376041810142   -0.43689905997269
O           1.32845514851437   -1.76131684609495    0.89758879174630
H           0.29559808141191   -0.94492970692515    1.50935308291270
H           1.23233867242266   -1.64064992293443   -0.06884981998166
H           2.13710076291342   -1.24920701667164    1.13710176638435
N          -2.71885081727740   -0.91058513098114    1.03793442105363
H          -2.63110856916291   -1.57626833173979    0.27979106480761
H          -1.42734754295608   -0.63542404404804    1.59144337866092
H          -2.95786903683458   -0.00780884469175    0.61146746773629
H          -3.46544254425447   -1.20174477412583    1.65629795304183
