    26
        -50.45646156  Gyration_radius:  2.53563952057 Dipole_moment: 2.889
 S          -0.44548750854085   -2.05409826919515   -0.15740186762718
O           0.53284838106883   -1.24385980859317   -0.89437381301451
O           0.17329928767292   -3.13601393711995    0.56614649361883
O          -1.38027397442569   -2.69954603578518   -1.26584388205902
O          -1.30748181420505   -1.22089487923709    0.65526060702465
H          -1.74862709807920    0.21412812520485    0.13272884328268
H          -0.84060958128839   -3.38713707651530   -1.64442668601572
O           1.72172880039573    0.15868946443435    0.85240248266682
H           1.37261684884153   -0.37181057437179    0.06351302083769
O           1.12998099562584    2.81610918079073   -1.81271653674463
H           0.86789226179251    3.56305966626600   -2.35137828215734
O          -1.97090426963227    1.13596724395979   -0.16133509844603
H          -2.86080156108906    1.30675870663949    0.14962371311059
O          -0.42379517123504    0.75101133302495   -2.44799878336486
H          -1.16046667794983    0.97342559215863   -1.86029023167624
H           0.64391656433224    2.03242647789164   -2.16900790830989
H          -0.01395284305886   -0.03323347296424   -2.04064682694156
O           0.36533607226395    2.25768947911469    0.66470163553227
H           1.18915804484283    1.07354815783458    0.83035160180557
H           0.72609263745036    2.61881513946254   -0.17962777100733
H          -0.53021895885361    1.93529856121312    0.43717656185591
N           0.78328724216325   -1.37198101407968    2.60985155012587
H           1.37358398653731   -0.43564811952567    1.70233899195352
H          -0.12810986811088   -1.03926661715378    2.90004878542448
H           0.62133496200086   -2.17971056721965    1.99721813483145
H           1.30965324147242   -1.66372673624279    3.42368522530285
