    26
        -50.45646146  Gyration_radius:  2.53590896031 Dipole_moment: 2.900
 S          -0.96340740770655   -1.60718106808301   -0.96612687415065
O          -2.21675771435602   -2.21652863929417   -0.59887487119026
O          -1.08965252896817   -0.16114661268992   -1.18905872645181
O          -0.53525011829596   -2.21561036370709   -2.36815394088932
O           0.12284360208729   -1.90192286780097   -0.05454984136260
H           1.44282680543014   -1.01612155030213   -0.07855274258152
H          -1.34160811372617   -2.20350556016888   -2.87519678969962
O           1.18035373478834    3.30144746711325   -0.45441008838027
H           1.92532050404752    3.84229819894232   -0.71750803605415
O          -1.30617144401463    0.87794555418499    1.11403507764483
H          -1.28444218753943    0.59720034893981    0.14110334783085
O           2.23940471633506   -0.42445724517457   -0.04606086515307
H           2.98349163048366   -0.99156243061652    0.16015263879848
O           1.10857241560915    1.16409149738123   -2.03822767899714
H           1.73500541722619    0.62383441403591   -1.53498858241985
H           0.24411817845523    0.74149427744146   -1.88641235096261
H           1.08897363232613    2.59966689484744   -1.14472019213387
O           1.09119604274883    1.50251892514049    1.49230727582835
H           1.15562610751739    2.29418560974823    0.90702864523034
H          -0.31307944675852    1.16506913353804    1.34306550330987
H           1.58930327479140    0.80272006551000    1.02334522026099
N          -1.79686818420433   -1.41480760074568    2.01698438668829
H          -2.48211895302616   -1.58641199347926    2.74189772434011
H          -1.52987537565888   -0.06504536189843    1.62093631572916
H          -0.92934952147078   -1.87869806435605    2.25738546295361
H          -2.11845504616507   -1.82947304847035    1.13459995178825
