    26
        -50.45646141  Gyration_radius:  2.53555696176 Dipole_moment: 2.904
 S           0.06495384946698    1.35264052389731    1.61438918661895
O          -0.47488644067469    2.68837192438230    1.65187736620315
O          -0.95024873966836    0.34955730167314    1.26814444354803
O           0.53248832232485    0.98979968089173    3.08713815673860
O           1.23960840122771    1.21732216711206    0.77802431139486
H           1.72491907163597   -0.22267463583514    0.31157075287284
H          -0.18756605857620    1.29050797054294    3.63354390997451
O          -1.16354576744499   -3.18496224163151   -0.99888471747251
H          -0.95592241179444   -4.11827732779196   -1.04989434028686
O          -1.36075951644364    0.61530772674294   -1.22030945932493
H          -1.33766193906149    0.43705229066833   -0.22363756527660
O           1.99026054321171   -1.11423693062563   -0.03541979549544
H           2.94694028951220   -1.10623750120566   -0.08516897300173
O           0.18409952312494   -1.16644670491136   -2.06815780894290
H           0.91791914395934   -1.16457920778850   -1.42060739521258
H          -0.34467844548438   -1.96998141816107   -1.84849725551585
H          -0.72545813370752   -0.11568857278331   -1.64861397651387
O          -0.18658006221360   -2.24358746843299    1.29055421773115
H          -0.92386851365939   -2.89659237305410   -0.08413622451732
H           0.71230121431157   -2.07337098927835    0.97351027224782
H          -0.57618026361950   -1.35865063405623    1.40913422693142
N          -0.19803081304859    2.83927279345073   -1.09796315362039
H           0.79751701480508    2.71212749155726   -1.23294497569800
H          -0.87647354252818    1.59358206147699   -1.29123116322044
H          -0.34200268525123    2.99918522376819   -0.09411568833214
H          -0.50714405038129    3.65055883937903   -1.61830434184113
