    26
        -50.45646137  Gyration_radius:  2.53636826711 Dipole_moment: 2.904
 S           1.25073764051699    1.34774932422511   -1.03403933180356
O           2.66224170846807    1.55377275387878   -0.82776995356321
O           0.92827230657217   -0.05443118963104   -1.32800384770603
O           0.84057569548765    2.15825017671645   -2.33555136726750
O           0.41947458737490    1.86160420729611    0.03499080071099
H          -1.08941364653607    1.37963463230653    0.17024920977467
H           1.53881600442217    1.96204960719348   -2.95310584569356
O           1.13321764604229   -1.28999188297475    0.87718551996227
H           1.06784759839531   -0.93899921762942   -0.07059669325351
O          -2.12413174768129   -2.79947916100033   -0.40379932193089
H          -3.02105997199824   -3.08773507055713   -0.57469795104690
O          -2.01045076496819    1.03103397780678    0.29614643718063
H          -2.52887807752174    1.76441260376962    0.62955017627696
O          -1.64692879400393   -0.64947936869806   -1.89794211478368
H          -1.92481348551633   -2.09944461976040   -1.07276157665933
H          -2.02264773020598    0.00259194093454   -1.28869277596612
H          -0.68580316569163   -0.49621606275441   -1.85786376762341
O          -1.27331563703649   -1.25312190793970    1.57572091039383
H          -1.63626165340939   -1.94779893868270    0.97636723873516
H           0.13747380881862   -1.30780185894773    1.23671745757812
H          -1.60661422369475   -0.40817158963473    1.21148905526932
N           2.36752945124152    0.69972938380694    1.78790377990426
H           2.67924198262895    1.07613535258322    0.88500917982559
H           1.70592424191140    1.36559722490685    2.16793853846069
H           1.67944022339704   -0.48814442457863    1.38267681469304
H           3.15952602297047    0.61825412736873    2.41287942856589
