    26
        -50.45212789  Gyration_radius:  2.4528683419 Dipole_moment: 5.973
 S           1.22332482850145   -1.55280017021515    1.17601214271763
O           1.10656075676294   -2.58962044108749    2.13579303399268
O           0.89705766865345   -0.22360891124162    1.65124129105032
O           0.33191489060616   -1.84662411840241   -0.06415241736485
O           2.61265320397434   -1.53304890225959    0.52966996664132
H           2.50759424000377   -0.90716318864948   -0.25516893882254
H          -0.64535192503880   -1.82952539763650    0.20138429987603
O           2.23755820967123    0.14563117382942   -1.37244594242703
H           3.07633423424446    0.39802768207132   -1.76413790707534
O          -2.10467652552096   -1.66492457294532    0.66754236866966
H          -2.25742850197539   -2.28925268518439    1.37989403463852
O          -1.23379411183079    2.23259500826898   -0.44052098634397
H          -1.78665722531003    2.88797113840099   -0.86656326807684
O          -1.65838175428364    0.63443672853184    1.76568781214026
H          -2.06769784942985   -0.75583622659058    1.09622677049086
H          -0.72799741921240    0.40968032268377    1.94552917302470
H          -1.62265592792035    1.31955897683124    1.07482642323787
O           1.42009485143929    1.99851121147993    0.23333865707506
H           0.51494322776444    2.27386623148752    0.00492477299285
H           1.30956727704071    1.33627897182689    0.93969898856230
H           1.93275627928644    0.93639180554184   -0.82866853099965
N          -1.01358309678688    0.04828028638598   -1.93529183910045
H          -1.17932357818776    1.44263069093310   -1.05462274041344
H          -1.15738143078463    0.04357818972319   -2.93753960300115
H          -0.07061180906375   -0.28362933140776   -1.75665612259470
H          -1.64481850262146   -0.63140448242000   -1.52600144888516
