    26
        -50.46163572  Gyration_radius:  2.55711049978 Dipole_moment: 2.238
 S          -0.91900532986429   -1.47426995858104   -1.55231873097933
O           0.43104933387285   -0.99802635536038   -1.84970927010412
O          -1.77406190172122   -0.37475852005710   -1.17011714910017
O          -0.91287602335509   -2.59459551016378   -0.63023252318014
O          -1.50126423522847   -2.05506642381415   -2.91437552131973
H          -1.17351484568809   -2.94876697420141   -2.90735073890393
H          -0.27455954493566   -2.08829545258159    0.74767303614537
O           0.03576144890925   -1.74128305730946    1.62311402517174
H           0.21168908389139   -2.51179759146201    2.16572331746568
O           2.98220722823352    1.21268491711998   -0.24019877418091
H           3.29044094800713    0.38044676337599   -0.60488165055149
O          -0.73616905844697    2.08705411459548    1.10459066519408
H          -1.28649405918579    2.85695258299674    1.25022524530046
O           1.52693760680793    0.57778720333099    1.86960039789093
H           0.81310960993249    1.22880380654934    1.82884731402950
H           1.09050080535131   -0.28718115785467    1.78425393603219
H           2.59102737980578    0.99147885394993    0.64322906508105
O          -2.14464062939276   -0.05057522588149    1.42559358353535
H          -1.49455249130716   -0.69646425229673    1.74604303847770
H          -1.32548033224260    1.28850025899829    1.28044064639785
H          -2.21081027754151   -0.22598302242106    0.46319398642632
N           0.54459620126556    1.50912580793088   -1.22415896279478
H           1.55984497744104    1.56649216877661   -0.92687320157741
H          -0.05592308467329    1.73322921753652   -0.39832768967978
H           0.33371132502798    2.12578559440827   -2.00038967904848
H           0.39847587502777    0.48872220240936   -1.51359436572909
