    26
        -50.46306620  Gyration_radius:  2.54511256867 Dipole_moment: 3.928
 S           1.65685187376917    1.19885582050718    0.93770700235245
O           0.26518354224284    1.47167922717086    0.63665506326223
O           2.38232251756432    0.71981106168719   -0.23853264691640
O           1.83447159285919    0.31313498671060    2.07062914924197
O           2.30632220472472    2.58444012015765    1.33553243946300
H           3.13499501188562    2.30331015687039    1.70878868644194
H           1.11520087126093   -1.20182611087317    2.03222226596700
O           0.63972926943359   -2.00042186344759    1.70498277986947
H          -0.28353076425491   -1.72035570558008    1.61755319733596
O          -0.91744987866576   -1.19213569108576   -1.75015701852946
H          -1.65485770501031   -1.65934359619022   -2.14438302227879
O          -3.35958441427974    1.11256342039612   -0.30017089438471
H          -3.61834335937222    1.89053555554284    0.19495809616624
O          -1.12723030528429    1.68514361751876   -1.68417248753702
H          -0.55476736168011    1.79172083964423   -0.90299475493145
H          -0.90918714692831    0.81537298769912   -2.04239627876687
H          -2.64353008848380    1.40896748865023   -0.91060520914475
O          -1.48406220860257   -0.50718732638088    0.72249234960741
H          -0.83826847740216    0.22863972463731    0.81114692644535
H          -2.33231053695216   -0.05060594668931    0.53591101482202
H          -1.19322263661726   -0.97189001947861   -0.81532553406746
N           1.52925126478843   -1.66813846173244   -0.72676683933889
H           0.68678535826898   -1.59059028997062   -1.32932111298295
H           1.20621400712664   -1.96524700132950    0.25450079062643
H           2.21210500387743   -2.30838841688016   -1.11591176161434
H           1.94691238572218   -0.68804457755586   -0.60234217110477
