    26
        -50.46305534  Gyration_radius:  2.55540248377 Dipole_moment: 5.330
 S           0.86703459501584    0.02847771274934   -0.78786317030305
O           1.63857691432210   -0.38657984098521   -2.06809736961098
O          -0.42050471090620   -0.65733420446072   -0.80137504976179
O           1.68639450871931   -0.42457441943962    0.34042468859198
O           0.71349510057453    1.47558425613047   -0.79048814443728
O          -1.37689342718171    0.64982892033793    2.79089708630634
H          -2.04057449635792    1.34099816159300    2.78939390818001
O          -0.60577087379968    2.36964800873444   -2.90650649841997
H          -0.03572473580290    3.02019356927502   -3.31993931656758
H          -0.17011165290595    2.12683182960353   -2.06107485295640
O          -1.72286819914858   -1.52209084159376    1.30719280450822
H          -0.42713908229759   -2.09075516915807    1.61858046300703
H          -1.74354709480590   -0.72847535674026    1.89352472495945
H          -1.44771415627324   -1.18098887587405    0.42659421264711
O           0.84107112735329    1.76798964153006    1.83289127431037
H           1.59292459297822    1.17516759917154    1.91881356664632
H           0.72483173559580    1.84604533832011    0.86450754625703
H          -0.54403856133290    1.07831684221880    2.47793814432799
O          -0.50378505989690   -0.25202034057204   -3.47241801322527
H           0.93008170533085   -0.37062299645302   -2.77497922723675
H          -0.91598913656006   -0.56142850599518   -2.65195279589752
H          -0.66672872033077    0.71491784281625   -3.48825754166387
N           0.65766407972649   -2.33348389745437    1.71789786394573
H           1.14346020862758   -1.56418434735926    1.12705236953417
H           0.86668817561917   -3.24798069106596    1.33220104088437
H           0.95916718369659   -2.27348024528659    2.68504230596328
