    26
        -50.45890740  Gyration_radius:  2.59832813309 Dipole_moment: 7.962
 S           0.65507884421200    1.60901148461624    1.45345438499594
O          -0.25552884879732    1.60654140734916    0.33453715039538
O           2.00505367137433    1.19132374320508    1.07273395779918
O           0.17599991545721    0.83146868394457    2.58713322655413
O           0.77305925834624    3.10307033691961    1.95211152815530
H           1.29309873642275    3.01245151514079    2.74407349136426
H          -0.27506606182114   -0.62153034985987    2.17943248226105
O          -0.45799394234658   -1.54469154544573    1.84385733680549
H          -0.64897565602399   -2.07341472961984    2.62044693654612
O           1.23688098140743   -1.15437945778780   -2.31392691894589
H           1.98020655791450   -0.93740261177744   -2.87852607571093
O          -2.66430777288262   -0.17802361937787   -2.27123452043494
H          -2.66726211088719   -1.11517508465744   -2.47116909810097
O          -0.21265380810641    0.95975017645112   -2.31242038820212
H          -0.18594133153413    1.32462567909546   -1.41075365908243
H           0.63156984094948   -0.34122837965928   -2.35257815628975
H          -1.13913912423524    0.66382521570145   -2.44002537544557
O          -2.40262025076949   -0.03798044558908    0.40426098174479
H          -1.75912133214534    0.69300706275357    0.42054513582956
H          -2.71882390175965   -0.10378059240135   -1.29306702730703
H          -1.94852665787560   -0.77138939555724    0.83753527788866
N           1.72732200409243   -1.24421281783180    0.25932551693261
H           1.53706711618517   -1.25243124645873   -0.79507991878817
H           1.91483958549843   -0.23131903924272    0.56321980479109
H           0.88334055125568   -1.55545811213540    0.78059625099383
H           2.52244373604305   -1.83265785777692    0.48551765524591
