    26
        -50.45890733  Gyration_radius:  2.59834053579 Dipole_moment: 7.958
 S           0.62524152966646    1.96332868330296    0.94208729157949
O          -0.52481111065806    1.56573977740764    0.16720951259351
O           1.88280018748411    1.72985095356631    0.23075958101611
O           0.66335485006231    1.36032871643986    2.26660583733885
O           0.51919987146714    3.52368264209220    1.16244181433271
H           1.23782060920247    3.69346113684191    1.76296781377700
H           0.47316074993425   -0.20256505468617    2.22526730762615
O           0.42838475468057   -1.19235878838377    2.09573067837436
H           0.58171638483238   -1.57732700214117    2.96025765057484
O           0.80389385769659   -1.35587318940643   -2.39333513748810
H           1.29607316574982   -1.12810342301617   -3.18341208467302
O          -3.05539924348362   -1.12112643296382   -1.30142370029796
H          -2.88994635756388   -2.06330413739739   -1.35778068018062
O          -1.04331313997973    0.41539260406871   -2.24820895252811
H           0.03845189602858   -0.69091140599791   -2.35992768700204
H          -1.87394616511349   -0.06481230990361   -2.04379385830273
H          -0.86204036961492    0.95389350626267   -1.45825228150435
O          -2.12732060092768   -0.39508711803250    1.11887715385072
H          -1.41496448887147   -0.92857750145882    1.49272077555789
H          -1.69329924582004    0.42937264811194    0.83487328391059
H          -2.86180979936790   -0.86141350555804   -0.37387550791015
N           1.97399263075240   -0.82899180488122   -0.10766704409927
H           1.39822313627340   -1.17589634160088    0.68544701267819
H           1.99400166716394    0.24139361856168   -0.02178183874766
H           2.91542836468627   -1.20391841076171   -0.05480826604079
H           1.51510685571483   -1.08617786046560   -1.04097866446367
