    26
        -50.45890663  Gyration_radius:  2.59850135604 Dipole_moment: 7.954
 S           2.16886600887536   -0.17605607007972    0.63184056579816
O           2.20535278011248    1.26236234137947    0.36493249532194
O           1.36387166597692   -0.89103396720316   -0.32831854269380
O           1.78413574962833   -0.43439240216568    2.01205154556055
O           3.65108858460126   -0.69912929120407    0.47618255918666
H           4.08934902031187   -0.29114408484636    1.21591392226526
H           0.24047726845036   -0.23912402821931    2.25719928073714
O          -0.72948444850164   -0.01275149996524    2.33657148355834
H          -0.93526501829152   -0.06398220429667    3.27155194201522
O          -2.10035973297508   -2.13238346238466   -1.82520756081807
H          -2.95726061749982   -1.75088344274630   -1.62922620106071
O          -1.38694752929186    1.82135285195101   -1.72506109680495
H          -1.14162821884064    2.47787129732095   -2.37860964752169
O          -0.20355992733815   -0.32225272113209   -2.48405262112891
H          -0.86531207423337   -1.04340412169354   -2.42023948137457
H          -0.96575657987409    0.95743230327595   -2.04954305520083
H           0.46655643186237   -0.53375236725246   -1.81097120823787
O          -0.82190850302333   -2.22599723052014    0.54194244975421
H           0.04509025645250   -1.92169068903901    0.21860917314639
H          -1.07835253332686   -1.57145244219824    1.20344374631374
H          -1.67337519431340   -2.31297684757228   -0.95897660791295
N          -0.24416128892070    2.03833044296897    0.62422681972776
H          -0.74483814565226    1.97703235045991   -0.32084529681241
H          -0.32671845823687    2.97121089012883    1.01477384278303
H          -0.62942178108805    1.33167761255577    1.28241717584204
H           0.78956227515575    1.78513680248457    0.47939430753660
