    26
        -50.46305553  Gyration_radius:  2.5547196673 Dipole_moment: 5.328
 S          -0.03919779328573   -0.66424860063200   -0.96588435747797
O           1.00735430275542   -1.43035996376429   -0.28209696819254
O          -1.36796808673050   -1.06360880104928   -0.52706296066832
O           0.18040255780124    0.76908126328021   -0.80630071849867
O           0.10265975069333   -1.00112012237673   -2.47345735262368
O          -0.00608487272977    0.52615021105443    3.13048230936677
H          -0.81827261166786    0.86232761243870    3.51195836328166
O          -3.30599254532942    0.16136429031846   -1.85365009555579
H          -3.86106560898242   -0.53230396798802   -2.21386573267504
H          -2.65996782187603   -0.28714252676983   -1.26623228832795
O          -0.65726228165939   -1.75461368130902    1.92236961972412
H           0.12699440003733   -2.22111054379780    1.61957630030652
H          -0.24149046029140   -0.34184333381194    2.72248333073451
H          -1.10795254697217   -1.50885008975067    1.08943534967020
O           1.28159562984493    1.92350085791150    1.27818153893369
H           2.28889122259690    0.90749258930294    1.04823248684892
H           0.75590552621827    1.69290464736897    0.47943928444066
H           0.77847637055896    1.54074432015510    2.03585397566273
O          -1.15461874907710    1.13705277355230   -3.12765498175464
H          -0.70991832126115    1.49313273915878   -2.34398984456604
H          -0.37428693086054   -0.24329928079772   -2.92064215596972
H          -2.06514641977352    0.92845707619503   -2.82888830587830
N           2.86808209515048   -0.00515243575703    0.77058949760704
H           3.24181384041383   -0.46545980822492    1.59421163579798
H           3.60914530577016    0.21493501953825    0.11397913220126
H           2.12790405839301   -0.63803023434045    0.29293294753118
