    26
        -50.46365344  Gyration_radius:  2.41767584744 Dipole_moment: 9.110
 S           1.39925229852899    1.39171076313147    0.20902544109018
O           0.03715902709630    1.49059479278184   -0.31400473293771
O           2.35682369458000    2.21569549892039   -0.44394464679801
O           1.80754129867406   -0.03992061526553    0.24479421215362
O           1.29727911673296    1.80851512053607    1.72401065766735
H           0.57797416238093    1.26432543474775    2.09336037495423
H           2.27375959961091   -0.08834947898333   -1.43440341998122
O          -0.78354809410853    0.28350201314003    2.67572663717355
H          -1.10515841843797    0.69520587003715    3.47915793421658
O           2.27984289171035    0.09314813946059   -2.38888249754286
H           2.56869416902249    1.00875836083511   -2.44522828093487
O          -1.72932679545325   -1.58728119126539   -0.99769626867789
H          -2.11425463240906   -2.26729092819116   -1.55128289345387
O          -0.42505807386743    0.06200535261233   -2.48078124684081
H          -1.23298078556895   -0.96784801766354   -1.62612154507028
H          -0.34110698113958    0.75529481466793   -1.79375068676702
H           0.50561342145356   -0.12235312198206   -2.71291064366820
O          -2.29226659938646    0.71296461576587    0.62003371876031
H          -1.45641563043029    0.49142234083026    1.95912297238151
H          -1.54279318953746    1.18366461899812    0.19577860439627
H          -2.42502979039011   -0.07218888341197    0.07175263485844
N           0.05479618607867   -1.69689189097504    0.99471431573819
H           0.45654109876134   -2.60272561167668    1.20876989223226
H          -0.33831230794397   -1.24945852319531    1.83306480934765
H           0.84134554627353   -0.99880223213890    0.64026316851488
H          -0.67037120223130   -1.76369723171698    0.23943149918702
