    26
        -50.45890655  Gyration_radius:  2.5984586912 Dipole_moment: 7.950
 S           0.75647010451195    1.63325136810867    1.37645081887369
O           2.01519663645795    0.88906241712410    1.31690460949393
O          -0.39285504448414    0.76257299385971    1.42324419651797
O           0.68955485587099    2.61837549438664    0.30656428543998
O           0.77915438631365    2.44552251409305    2.73074507620989
H           1.46953765871335    3.08179564647688    2.57460785002335
H           0.36873339596554    1.97146476028010   -1.09367124774413
O          -3.08926040061021   -1.64188136378341   -0.23024676300470
H          -3.00355488860942   -2.06208920056932   -1.08714407126072
O           0.77330349289030   -2.73079422466748   -0.39294644131148
H           1.31349599584826   -3.36982123429927    0.07412786660470
O           0.24434317369936    1.46708781345959   -1.94709816036769
H           0.33021184053138    2.11417613197035   -2.64924881683267
O          -2.19204415645575    0.87021350330080   -0.59414119172772
H          -1.54388898963704    1.00861345358307   -1.29593079975959
H          -2.90866449929754   -0.68657713833488   -0.37139928722853
H          -1.67774647917405    0.93092392660235    0.23080757888036
O          -0.91503658262072   -1.91132696333465    1.35299308766566
H          -0.71818949688071   -0.97383235012872    1.52381987665386
H          -1.79202635440126   -1.91161801625747    0.91357499067468
H           0.06872138363329   -2.44238690608383    0.27763969611417
N           1.89793028335064   -0.41939208443041   -0.90622014016993
H           1.26499016270737    0.17525993972599   -1.47764632413607
H           2.80081644374728   -0.51599880663779   -1.35907579389598
H           2.00698765488402    0.07698799270754    0.04018182833702
H           1.45381942301590   -1.37958968714686   -0.73689271400730
