    26
        -50.45890738  Gyration_radius:  2.59857033278 Dipole_moment: 7.954
 S          -0.53325128270877    0.49836749809446    2.14466570167627
O          -1.31984801219977    0.35068958089970    0.94442201779011
O           0.50548965385760    1.52010161441198    2.00652609942148
O           0.03698517816159   -0.75509646538114    2.61689772620429
O          -1.50888908481556    1.00274089678102    3.27975621765057
H          -0.95461468155793    0.97150277297859    4.05284801542369
H           0.80346726327183   -1.53679414523200    1.48469429817684
O           1.33486117127919   -1.91846678284089    0.72949138080808
H           1.80263333265040   -2.67249721736484    1.09242821876151
O           1.11196564740917    1.54846710142317   -2.14063075163980
H           1.25886915270742    2.47940716788546   -2.31424930450883
O          -1.94951599997970   -0.99178031519857   -2.74127562658436
H          -1.27245905458599   -1.31033845467262   -3.33989954056833
O          -1.38319418004357    1.38166720076083   -1.57745556888400
H          -1.73249395555617    0.61330834334144   -2.07718854689043
H          -1.44882658965758    1.12519400753373   -0.64110366678461
H           0.11520885617927    1.46708223079984   -1.97044651430431
O          -1.30371851980519   -2.02926485673822   -0.34245148009720
H          -1.82014759242068   -1.47456923562846   -1.89545462196984
H          -0.37035872100529   -2.21796760014956   -0.18418966614130
H          -1.48499900893514   -1.22950317015776    0.18308025703574
N           2.04505265540856    0.63386034577936    0.13169832986607
H           1.70398219655258    0.99703752976536   -0.81682664135421
H           1.90199177952076   -0.39384800835995    0.19705790082494
H           3.02210112165362    0.86704010015931    0.27545594115548
H           1.43970867458419    1.07365985110605    0.90214984495802
