    26
        -50.45653048  Gyration_radius:  2.55840418872 Dipole_moment: 6.247
 S           0.64396379925976    2.47819873206749    0.04078949839125
O           1.23982938692139    1.35735327948833    0.76778270636588
O           1.55070958518379    3.54012389577174   -0.26021472825031
O          -0.44920959965249    3.10958947961382    1.05001296790834
O          -0.13970828732997    1.97339782323894   -1.08412535770305
H          -1.05250704433668    1.14208857043494   -0.07475502569458
H          -0.00812399962053    3.90573265622062    1.32889631634784
O           0.36162198257898   -2.76720016305204    0.57854648484060
H           0.66282818395335   -3.57189694677266    1.00137771384502
O           0.18806785187831   -0.18004347275301   -2.65670520632497
H           0.01137679915440    0.72454045998406   -2.33644624159541
O          -1.64432734208005    0.66163980236827    0.55487683228037
H          -2.10436139051386    1.36434395927368    1.01903483369074
O          -1.59851521509356   -1.55294839124320   -1.17554543668357
H          -1.03253324417886   -2.14828996474969   -0.66861269971827
H          -1.81684230573551   -0.81886527988459   -0.58269654303548
H          -0.58287699339257   -0.71078845050470   -2.35823788571916
O          -0.61920564370132   -1.07783280559378    2.33092205594188
H          -0.81088270449365   -0.32373641671464    1.73142852863426
H          -1.44361137937391   -1.27690896263735    2.77839009611646
H           0.01280394445170   -2.17895722077447    1.29799500019751
N           1.75083640029908   -0.74795417190885   -0.65587523085829
H           1.57675323892802    0.10414327897091   -0.02902095362600
H           1.35809375381430   -1.59065180479140   -0.19701106856755
H           1.20224469061435   -0.56401361031204   -1.56904913089379
H           2.74357554245985   -0.85106425574136   -0.83175752588181
