    26
        -50.46305556  Gyration_radius:  2.55475280542 Dipole_moment: 5.322
 S          -0.12544608114620    0.27098418476318    1.13302854291854
O           0.56096818588938    1.51524267639778    0.81935140662805
O          -0.86622098135781    0.44525684649272    2.48476529646255
O          -1.11812950650250   -0.07474993979684    0.12144283250524
O           0.82073751937869   -0.83126955931305    1.33183212550806
O           1.64947223282460   -0.63094945212992   -2.64033763969373
H           1.70182761277517    0.06878415916721   -3.29295221045454
O          -1.08771598235332    3.57948941704972    0.62676183973293
H          -0.41316512030355    2.86658138728082    0.61064557369308
H          -0.75954030503466    4.23975856211762    1.23949926113149
O          -2.81441939071603    1.64854740172615    1.32875215205410
H          -2.60316870349085    1.03864492110479    0.60617268136756
H          -1.69523867657522    0.94325409407347    2.22666182089045
H          -2.39524941564465    2.49781937569793    1.07393833961187
O           2.62833314960436    0.39798744241441   -0.38926516492016
H           2.72698726508710   -0.27882063583418    0.28633212612014
H           2.05524061261464   -0.26163322041996   -1.81916273557907
H           1.93190895786365    0.98046072746957   -0.02432791200925
O          -0.70814679090186   -1.63398125910029   -1.95033532528387
H          -0.17031104870048   -2.50489451150831   -0.92477707312508
H          -1.01700007834145   -0.94925810463776   -1.31532660303858
H           0.11315168882297   -1.26093064781796   -2.35057716144529
N           0.29015330849196   -2.95501657062920   -0.01326923709867
H           0.51286578458410   -2.09426509936960    0.60808296323662
H           1.14524411379400   -3.45128806939944   -0.24221507423542
H          -0.36313833066982   -3.56575411580965    0.46527917504021
