    26
        -50.45653056  Gyration_radius:  2.55843439211 Dipole_moment: 6.244
 S          -1.30415524678012   -1.97887966123703   -0.97006770612908
O          -1.42437201672395   -3.07026212044446   -1.88378391326711
O          -0.07536113859021   -1.98269596517778   -0.17641154612818
O          -2.50302569525060   -2.16816042117907    0.09716800143451
O          -1.51975821663205   -0.64932480552903   -1.53590085286065
H          -1.55354246044175   -0.02987241171853   -0.06670833678967
H          -2.75258328475826   -3.07316244396752   -0.06052804834721
O           0.20891263070939    1.23657343229511   -2.35620650923328
H          -0.55123775921156    0.62753083861297   -2.29897658936857
O          -1.61710220940309    0.34642362518571    0.84536752737879
H          -2.43077319146780   -0.02668918848008    1.19127535936989
O           2.22991152397655    1.24643392782100    1.26402024506405
H           3.02154950155456    1.36759101119686    1.78904181394655
O           0.37339275720690   -0.02441165672567    2.61506062368659
H          -0.05783224147978    0.40453409241809    3.35636500878026
H          -0.30802750860416   -0.10032266162637    1.91169691984156
H           1.58046919224366    0.75751453179855    1.83368269136177
O          -0.04610243360856    2.51936785010114    0.00178070504021
H          -0.70929910042465    1.91619394173532    0.36829557536870
H           0.78480666726218    2.30584287196909    0.44419160929376
H           0.04842751660024    1.91027405843733   -1.65945036254560
N           1.75123324787014   -0.31112972776479   -0.94410821017289
H           2.52015374191076   -0.78097521724839   -1.40789915883713
H           1.03600270037851   -1.03171189878259   -0.59993530586530
H           2.08156737193845    0.24905289004477   -0.13662776638497
H           1.21674565172737    0.34026511827396   -1.62134177463997
