    26
        -50.45890729  Gyration_radius:  2.59845912834 Dipole_moment: 7.952
 S           1.88171440709983    0.63419134949857   -1.09072341431199
O           0.94887739693708    1.09867315539176   -2.11833111644727
O           1.46265155076479   -0.60957233287598   -0.49187752613205
O           2.13915428736999    1.68454851724201   -0.11615449819126
O           3.25303729206527    0.35698540162455   -1.82382849296808
H           3.51962744776522    1.22991728206585   -2.09356397122565
H           0.94951436658527    1.87236903001322    0.89937213655901
O          -0.74011268718408   -2.78220660585452    2.00060910096077
H          -1.55319951673746   -2.49207363677836    2.41647446531105
O          -2.62017355669701   -0.73240299977097   -0.90202180773950
H          -3.02030820305817   -0.96485158035942   -1.74119010752748
O           0.11729208064267    1.97535674022601    1.44256957266703
H           0.25594210294595    2.74930094888011    1.99109237603982
O           0.91510160757457   -0.66527688477443    2.15711180434882
H           0.50639662995823    0.20863012337437    2.18905525886116
H          -0.07443914573471   -2.08134873315285    2.17651066477676
H           1.27790157090967   -0.73378936117491    1.25583203425571
O          -0.63689868827352   -2.33854833812694   -0.66384594335460
H          -0.66358651325560   -2.68112115542936    0.25491820908157
H          -1.86719439151190   -1.40055988249345   -0.77599092133481
H           0.17309782622000   -1.80130152242448   -0.70984509611111
N          -1.26300059241945    1.50928545633820   -0.84991680713474
H          -1.79137680209640    2.29452798200543   -1.21581031616649
H          -0.38500979871044    1.34132277019145   -1.44533523075633
H          -0.92967720220587    1.71153513109202    0.11380563096077
H          -1.85533146892837    0.61640913532658   -0.85891597441540
