    26
        -50.45653063  Gyration_radius:  2.55847721236 Dipole_moment: 6.242
 S           1.92108603445602   -0.20006609190833    1.68145698354759
O           1.09155099446493   -1.25416498647430    1.09790440351045
O           3.24672543913725   -0.60803400778909    2.02284782824036
O           1.20677095174504    0.18093873107777    3.08034835387498
O           1.81762941310876    1.01158910474440    0.87168688512277
H           0.24354693222346    1.04654264850979    1.12470168174157
H           1.79743036114833   -0.22364891320603    3.70776307760871
O           1.46446699745093    1.36144765542528   -1.76805579860747
H           1.78298947856162    1.44236593652405   -0.84928963331825
O          -1.93796848735423   -1.00689812412986   -1.83143013601105
H          -2.54376559470371   -1.60391361445423   -2.27145868416197
O          -0.72508471232183    1.09132353985151    1.31779492558312
H          -0.76307605317568    1.28699472754790    2.25647723626570
O          -1.17520046783661    1.75095328870165   -1.37799984783408
H           0.55616009307486    1.73543088732175   -1.75629991944319
H          -1.55465878964552    0.92036855117505   -1.69091998775414
H          -1.14123585934258    1.68488161148257   -0.41236651468228
O          -2.32377768520320   -0.99830459763759    0.76409890688400
H          -1.59649565714777   -0.39365398106684    1.02926436455738
H          -3.12760358829681   -0.62067053149297    1.12575561943379
H          -2.13678157968512   -1.06156518363879   -0.86039427756933
N           0.77993167554616   -1.13096816537908   -1.47280683236898
H          -0.22668028331058   -1.19718078193334   -1.71201403034543
H           1.12793275026918   -0.13607210021273   -1.71321581450458
H           0.89453221558282   -1.23650108164011   -0.41217843941543
H           1.32157544125742   -1.84119453140058   -1.95167033036106
