    26
        -50.45653069  Gyration_radius:  2.55866610903 Dipole_moment: 6.241
 S           1.45802937410990    0.93004387154746    1.88914331746346
O           0.46027154541240   -0.13871970287081    1.93414534101985
O           2.52106626467819    0.79063344172045    2.83290936654181
O           0.66652218784585    2.27249970745569    2.31738264474597
O           1.86343756101443    1.16564867853210    0.50541809056157
H           0.35456989234436    1.50978148754388    0.12130452524444
H           0.99340157886904    2.40798653649850    3.20108260631692
O           2.08416298310090   -0.49914524229069   -1.59077458340700
H           2.25192280517763    0.20044513361002   -0.93153280148830
O          -0.57326716246299    1.76466676835277   -0.10615089822729
H          -0.70831878254415    2.58687400147768    0.36986847416474
O          -1.81291146804182   -1.85491490378747   -1.18164990736606
H          -2.48676765453428   -2.52914853875933   -1.27312446587219
O          -0.34086793510366    0.27602279210279   -2.48017816176112
H          -0.49197284485822    0.93494506161384   -1.78668827552533
H           1.34316959036389   -0.15972132389439   -2.13908923946741
H          -0.89494083819247   -0.48194673558111   -2.25604612748675
O          -2.61208226623228    0.08519935174638    0.39390935096018
H          -2.18041637165212   -1.16351036210863   -0.57140450629164
H          -1.79174978699304    0.62537537172285    0.40697156128996
H          -3.31247790371370    0.67394621319708    0.10702697336100
N           0.63895965842134   -1.90967719554092    0.04935493310245
H          -0.28515105008646   -2.04250139806029   -0.40160881623959
H           1.01309685975339   -2.78710419682859    0.39176381135145
H           1.30664550319972   -1.44284593493775   -0.66118902741341
H           0.53566825012360   -1.21483288246202    0.85915583441718
