    26
        -50.45966279  Gyration_radius:  2.59370002911 Dipole_moment: 3.970
 S           0.87344845590123    2.25060613637151    0.29322219791549
O           1.31732235986529    1.49910972103985   -0.85784260552831
O           1.05490109268201    1.48278241530918    1.52422855445358
O          -0.46761689090032    2.79128177903312    0.17721454433780
O           1.83741581337670    3.51022352674399    0.41236583922276
H           1.38702959550238    4.04825540789005    1.05596882553690
H          -1.56128250389774    1.63335569396959   -0.00091297013353
O          -0.17654122452136   -2.50786638693975    2.18118202693046
H          -0.20800485422371   -3.46512881332575    2.20326652393192
O           0.41441802643481   -1.64352082243070   -1.59699565229189
H           0.95332421142065   -2.00976048590856   -2.29889457929737
O          -2.22176668091726    0.92476554470848   -0.21354990208746
H          -3.08319997185138    1.31189146507091   -0.05022178981432
O          -0.59147629293682    0.58246757647701   -2.43055615743156
H           0.13044682824124    1.08913148612533   -2.00205672655906
H           0.00760843695139   -0.80494613279346   -1.98141929355563
H          -1.36256678750338    0.72029200877437   -1.85775050618116
O          -1.75632199722348   -1.76153399503256    0.21122463418619
H          -1.98633713837818   -0.81726279777878    0.16706698251918
H          -1.14409191775746   -1.90640863016197   -0.52305694518033
H          -0.89991623630856   -2.22280722520067    1.56613816040420
N           1.51199047027117   -0.95203582633078    0.80104834298762
H           1.16536469531732   -1.10061067635389   -0.17501282451744
H           1.32449571211025    0.06471519814270    1.09869613911502
H           0.97258157592326   -1.58587845125751    1.44218831455129
H           2.50877522242337   -1.13111771614163    0.85445885648564
