    26
        -50.45878732  Gyration_radius:  2.54419159377 Dipole_moment: 6.047
 S           1.39831924184166    0.14987587238296   -1.39321090737507
O           0.88670000576201    1.00299596992296   -0.35699880657285
O           0.51535208588808   -1.01561023325207   -1.58912330199104
O           2.78613764985196   -0.22816045054701   -1.27174259835073
O           1.29776668499145    0.96890552243377   -2.75928003306412
H           2.02256434294447    0.61502975931910   -3.26516353857550
H           3.19215688049051   -0.29317961826397    0.36586547199228
O          -2.70962843498634    1.94187426447524   -0.70295906240823
H          -3.55003627996128    2.27415622166015   -0.38499079251385
O           3.30920990019645   -0.55860263962601    1.30265071215447
H           4.07820044439283   -1.13207093133405    1.31800863119887
O          -1.25963280395045   -0.76990213789132    1.91208413136785
H          -1.54377975723472   -1.33369656960397    2.63256204502478
O          -0.98078949234625    1.99778289558841    1.26014188629517
H          -2.04513909408782    2.12809340370593    0.01767379608800
H          -1.10990812510737    1.16884674457052    1.74114247746665
H          -0.18492446352624    1.83319873658677    0.72240504363412
O           0.93729745166546   -1.77828892162197    0.99209097572910
H          -0.35114291160637   -1.10447532590783    1.64394401225474
H           0.87865071864811   -1.62178356350437    0.03543563167015
H           1.76901501842762   -1.34175271300660    1.27611634917388
N          -1.88824628622323   -0.58859044185375   -0.70947019502635
H          -0.91008891220607   -0.70611781240582   -1.13575968993369
H          -1.77957876617433   -0.72403917541141    0.32239610717135
H          -2.24014681871702    0.39176287180029   -0.86531936213446
H          -2.51832826946407   -1.27625175810113   -1.10849899349486
