    26
        -50.45878706  Gyration_radius:  2.54281039077 Dipole_moment: 6.042
 S          -0.97362911307308   -1.71329614935633    0.17896134286576
O          -0.88248384766525   -0.67906252881558   -0.81365319036706
O          -0.36816695286185   -1.26841926328050    1.44860199298368
O          -0.50575875515433   -3.01813070566946   -0.22383271541537
O          -2.52306328428919   -1.89984217044393    0.51190241523928
H          -2.57074546843806   -2.81583225384207    0.76717002473724
H           0.72717312849678   -2.82664278050207   -1.36106884094528
O          -2.08723597478476    2.67614590857871    0.24776626705271
H          -2.16768792788300    3.62831201046352    0.17877857124668
O           1.58401245988522   -2.66852427715753   -1.81113709500839
H           2.06090605156125   -3.49975848756959   -1.76603760294904
O           1.79098567279076    1.61677242335935   -0.12719349406263
H           2.67267728147860    1.98672061120271   -0.06838270041690
O           2.02871672095839   -0.93857956574813    0.19406401860854
H           1.99007059515840   -1.48259898840234   -0.62174202422338
H           1.91121388908571    0.61936364630425   -0.11737147258687
H           1.23771344854540   -1.18089189238211    0.70259689236055
O          -0.58105515486540    1.81051591135280   -1.70990130836370
H           0.32853130374711    1.89339733915070   -1.39230701022284
H          -0.78124844778444    0.86345706068994   -1.59790491165838
H          -1.64805941810807    2.37169666536966   -0.59456951665440
N          -0.25210303714228    1.31855071359453    1.61531432653618
H          -0.10985171201505    1.58686146512766    2.58324431469763
H          -1.07853810023870    1.81832228166730    1.19544339522796
H           0.58452141686204    1.54596862646261    1.02935465979223
H          -0.38689478427603    0.25549439985383    1.55190363152944
