    26
        -50.45878709  Gyration_radius:  2.54398527934 Dipole_moment: 6.037
 S          -0.29396895861007    1.95204205586595   -0.16115148937126
O           0.41330316565067    1.37940879721845   -1.32229096010550
O          -0.40265276866559    0.98212639283487    0.89279981045655
O          -1.51976541812568    2.61477316546766   -0.53791012480710
O           0.66910252301962    3.10826284502220    0.37047864731880
H           0.34287556584163    3.87524505486366   -0.08981649936740
H          -2.80934563310993    1.55522104145261   -0.28400491664573
O           2.78377154746052   -0.72081563605316    1.82538183504616
H           3.30575765670960   -1.41377372186025    2.23167945033432
O          -0.18170154526030   -2.38386232747000   -0.34927703628203
H          -0.43077473769438   -3.21626259622607   -0.75270278747716
O          -3.47783175595754    0.84163900043367   -0.35939362146412
H          -4.16544740000074    1.18643088028785   -0.93274258731940
O           0.24871431627351   -1.22795865651130    2.22822087562804
H          -0.01121287637401   -1.82525670714490    1.51350467021434
H           1.84562858481363   -0.86032476312793    2.13509128405858
H          -0.09241448027655   -0.36091965918031    1.94270656488852
O          -1.51249990310207   -0.53131971713333   -1.56800005017438
H          -0.88943969875674    0.21285027325122   -1.60328351520453
H          -0.78937053239372   -1.69193900409311   -0.75099716820792
H          -2.30335639503889   -0.18579425758861   -1.10086009988723
N           1.87617814389257   -0.66376805123345   -0.67483021609411
H           2.54897914445219   -0.84182740462407   -1.41287834854729
H           1.17160226793668   -1.43440002862702   -0.60661058230460
H           2.34732724648800   -0.58100637979875    0.26350000749280
H           1.32654192080679    0.23122943395056   -0.89661316217867
