    26
        -50.45878749  Gyration_radius:  2.54336083393 Dipole_moment: 6.049
 S           0.86855467940524   -1.40619463528830   -1.08920646053612
O           0.70042342408718    0.01668260346918   -1.19157370769808
O          -0.00772492173946   -1.95800845218227   -0.03839388828065
O           2.22876944650763   -1.87431071735114   -0.96997059525468
O           0.31821245222547   -2.03613582862163   -2.44826133175376
H           0.84057133792661   -2.82721948409994   -2.53551288650952
H           3.14155080894221   -0.69869356114567   -0.17294276024260
O          -2.82193999168533    1.19372834056951   -1.48358530216496
H          -3.52097176141678    1.84769596969481   -1.44594048825289
O           3.55912907273685   -0.11809736603342    0.49809681469650
H           4.30618336371620   -0.61151633850842    0.84282950103176
O          -0.56106737006553    1.44771102778833    1.85095900326549
H          -0.58771252984200    1.79496838802349    2.74337845706998
O           1.24117877691571   -0.40727817352373    1.82232604521820
H           2.11023235551795   -0.16153176196341    1.43844303733124
H           0.21849032392964    0.81457611254675    1.82642469803505
H           0.87412657009188   -1.07544967488237    1.22084105426732
O          -0.55440104090949    2.34261674971089   -0.86269400543166
H           0.02686019659885    1.61315562365026   -1.14477122882771
H          -1.96424538462868    1.69671139835977   -1.40092619447289
H          -0.50733349706658    2.31534158201384    0.10279851454250
N          -2.00472229879770   -0.38860550939204    0.49304012600526
H          -1.21501224521172   -1.05184393586722    0.19516114252027
H          -2.71915558968085   -0.91089087479066    0.98894999745140
H          -1.56657702682003    0.33634406795008    1.10735980867250
H          -2.40341914073618    0.10624442986945   -0.34682935068255
