    26
        -50.45878713  Gyration_radius:  2.54359758457 Dipole_moment: 6.038
 S           1.80489265409628    0.45759677122794   -0.67175127009240
O           0.92991897554042   -0.10415434915180   -1.71817389890752
O           1.19080578622017    0.33240320076265    0.62075383138653
O           2.29425846831953    1.77192357759573   -1.01341652260985
O           3.09068142097333   -0.48771621189989   -0.66733661263930
H           3.67679493483441   -0.04065171399300   -1.26963259662310
H           1.32860897903675    2.92680100618585   -0.24882506171980
O           0.60920769714236    3.54494807000343    0.00026291387172
H           0.74939350636557    4.33524003926862   -0.52524404077068
O          -0.06887337632263   -3.07349567066113    1.46306863876591
H          -0.59449133909061   -3.70195548037920    1.95962420490520
O          -2.38352900003565    0.05601011976172    0.39461591112437
H          -3.30431809185503    0.30188685514656    0.29786996377245
O          -1.01353046832819    1.69135348287128   -1.06791265618899
H          -1.85839747472906    0.76732072332665   -0.08229684713837
H          -0.56372227000156    2.42453563014241   -0.59557172861921
H          -0.29898661717251    1.13775413867734   -1.42292935435343
O          -0.49979427369080   -0.67461820456735    2.41494218475081
H          -0.13434264028625   -2.20664131363613    1.95269082359074
H           0.23274179339957   -0.23065802068754    1.95024584076969
H          -1.29020149878233   -0.35453698852974    1.95889955169030
N          -0.78720852910278   -1.79539191778096   -0.75677519765360
H          -1.51979812573429   -1.16846634251845   -0.35052388445029
H          -0.01434249886083   -1.15364170365611   -1.13511756591202
H          -0.41485149969374   -2.39565510356684    0.02458199139506
H          -1.16091652223952   -2.36019059395181   -1.51204861834876
