    26
        -50.45090885  Gyration_radius:  2.47198793465 Dipole_moment: 5.663
 S           1.53863850774823   -1.22713660079673    0.91421402861675
O           2.47705989181444   -0.65000563503634    1.81393590102767
O           1.78762325360726   -1.01622333434622   -0.49062113417952
O           0.12241774412470   -0.62674485733598    1.24348238792425
O           1.31970571680816   -2.71378677009555    1.16762730190583
H           0.90496540487083   -3.08628128864119    0.29850640667687
H           0.31537910037352    0.35914975519861    1.40832616141060
O           0.96755801989994    1.74777438055094    1.47969189459726
H           1.79379307347241    1.47607500693364    1.89547207402750
O           0.37023072389935   -3.25663955886897   -1.10573394946286
H           1.01438652091665   -2.67132251526131   -1.52440590517110
O          -1.27863251186417    1.15628610007568   -1.72301133506292
H          -1.77838074836981    1.64494226996721   -2.37816974838111
O           1.36920089991608    1.57680432172343   -1.07731539116325
H           1.17404621610363    1.85726961810825    0.50293438342531
H           1.70208616484724    0.66323996793705   -1.02996748258064
H           0.47736083647801    1.49499436811644   -1.46096774314849
O          -1.55455315681569   -1.44902785976875   -0.80370853953771
H          -1.47284556087585   -0.65153374999943   -1.35253287869583
H          -0.47448061218813   -2.74336002899966   -1.09983241361824
H          -1.17140863054590   -1.19990898534319    0.04839686240858
N          -1.97623899497034    1.91297842526659    0.75650731454005
H          -2.65246188197160    2.64929641687367    0.91674647370490
H          -1.09852361757979    2.19723678264466    1.17901241710559
H          -2.29290196759714    1.08633760400942    1.24882841514858
H          -1.58402439211516    1.46958616708471   -0.82741552148251
