    26
        -50.46365345  Gyration_radius:  2.41767389946 Dipole_moment: 9.111
 S          -0.46508135078228    1.85175140044567    0.54127013900918
O          -1.19593778546354    0.89817094989857   -0.29249371170685
O          -0.57373483329275    3.21123444262813    0.13845651018809
O           0.94982185718664    1.40585956436661    0.67042625230989
O          -1.06226563559131    1.68591999425110    1.98874285228972
H          -1.02821866113041    0.72957314844449    2.17370766798588
H           1.44900082997039    2.10182332850612   -0.84828204255502
O          -0.99017832566157   -1.03025423001819    2.41052060419541
H          -1.60759286566416   -1.23407087653168    3.11457565212137
O           0.55714806810695   -2.06716637071996   -1.38643618695442
H           0.99866656135711   -2.63613114935179   -2.01760640081653
O           1.42088001714798    2.39831551357566   -1.77308718649713
H           0.80862751743829    3.13976170755458   -1.75647678170538
O           0.04112186958946    0.18943833995020   -2.50986254392929
H          -0.58618248630966    0.49256932940386   -1.82113732188297
H           0.71349016420334    0.89789192983799   -2.51281808284297
H           0.37593520460681   -1.19981746627860   -1.87610363801880
O          -1.88120043534412   -1.61457448983051    0.05442962096776
H          -1.42678787400708   -1.32264011261075    1.55413649695554
H          -1.83062111964945   -0.66211735713310   -0.17679319810142
H          -1.21998928699814   -2.03542587106746   -0.51155090913937
N           1.33097550119069   -1.07246482397947    0.97499317715349
H           1.10325301823486   -1.54796551399739    0.06788556681111
H           2.27703191812107   -1.27622651923931    1.27698914003114
H           1.20057574885837    0.01878692386797    0.82079129863797
H           0.64126238388375   -1.32224180197120    1.69572302549608
