    26
        -50.44985198  Gyration_radius:  2.67267280243 Dipole_moment: 3.398
 S          -1.26082294011214    2.12537635645130    0.47973109834929
O          -0.56583346336896    1.40784719157763   -0.57745822609513
O          -0.80219929628813    1.68026986963984    1.79992788711300
O          -2.69681629810906    2.12571394631658    0.37086563049410
O          -0.79380213857330    3.63389724726573    0.33426779665431
H          -1.50437451189757    4.12614698851327    0.73302294984876
H          -3.00941591308841    0.58924559461943    1.04880396118038
O           0.90007273534575   -0.13309384335731    1.60451458649783
H           0.25506690570667    0.64652608276667    1.83605851493244
O           2.75711915025194   -0.92161706801840   -1.87475627514524
H           3.58730893193116   -1.34905638784415   -1.66042443915034
O          -2.88382270653754   -0.26162135124961    1.51561165596114
H          -2.55345221903110   -0.01785425988027    2.38405973158187
O           2.03477009127922    1.02753868026792   -0.25372569034272
H           1.54071448314448    0.34249833283086    0.84377187784097
H           2.34486312618433    0.36222238686422   -0.92221257996343
H           1.17229709832002    1.36439658974299   -0.57776931746530
O          -0.85961707038704   -1.14283046364109    0.06211296231924
H           0.28189087043062   -0.73916328846675    1.05538829443726
H          -1.69075528652507   -1.05930619112583    0.58651286541264
H          -0.81456061639949   -0.29584505546775   -0.42993790897935
N           0.85218191603723   -2.81420025043124   -1.65841305386216
H           0.14551767818680   -2.37080712737671   -1.07618251195830
H           1.08249275339676   -3.70506465280411   -1.23602115492216
H           0.42813594339737   -3.00032972893823   -2.55866634579969
H           2.05304079658492   -1.62088957832766   -1.82908228890926
