    26
        -50.44985171  Gyration_radius:  2.67254331968 Dipole_moment: 3.398
 S          -2.50296616497184   -0.26309509951065   -0.03706309088708
O          -1.26499047732016   -1.00976659906683    0.12036881206328
O          -2.26830460943457    0.98733844677775   -0.76716547107430
O          -3.24537288010331   -0.05479229036730    1.17919402284558
O          -3.41190599566941   -1.15988081596739   -0.97738732181128
H          -4.29632031433378   -0.87543062499406   -0.76965204273845
H          -2.37790282148604    1.28438337379171    1.78776933570037
O          -1.76222877804018    2.04303492560904    1.84428937676999
H          -2.01959860210809    2.62147996421658    1.12186433698308
O           0.14492394432124    1.26567979439354   -1.33378917908744
H          -0.88712877857358    1.25561521606051   -1.22064086564888
O           2.73601166986737   -1.80413107842035   -1.10799110803183
H           3.46413062681499   -1.60256129564922   -1.69699473119739
O           0.34687275447377   -1.10756345899396   -1.97854308267785
H           1.22828983736105   -1.45881800131957   -1.68667412875510
H          -0.29562337344092   -1.35761509469953   -1.28071874742174
H           0.32205302659834    0.25750768960779   -1.74154400842681
O           0.43067596844250    0.74478179643729    1.14442104865220
H          -0.08255618056826   -0.07039591867881    0.96152458136605
H           0.44750918650948    1.18838677067332   -0.35737634053963
H          -0.22850878388670    1.33894145140559    1.57499573138804
N           3.15758248209563   -0.37065271166720    1.13379403331546
H           3.87403141165761    0.34470777895609    1.13751800572316
H           2.90073128583058   -1.30457968219644   -0.26531063555762
H           3.32715945761967   -0.98079314320647    1.92364982935296
H           2.26343611828674    0.08821860687713    1.29146165984527
