    26
        -50.46365344  Gyration_radius:  2.4176850005 Dipole_moment: 9.112
 S           0.64385772338367    0.31478343910306    1.85057909770982
O           1.28837988953501    1.21504357766866    2.74297460424422
O           1.38825277491165    0.01500473840808    0.62803244652648
O          -0.73243222095768    0.75495526316823    1.49062082270580
O           0.43755340082391   -1.07261049018613    2.56603332791443
H           0.06496395731062   -1.66134918829138    1.88447171151788
H          -0.26699852012982    2.40521016002936    1.17439275726157
O           0.26273356968051    3.16962912789010    0.89331230780559
H           0.97293106015865    3.20566369818544    1.54081881627562
O          -0.39006382836339    0.20176655500057   -2.51248603302819
H          -0.62635880850312    0.58048754379288   -3.35970000221259
O          -0.55180522249330   -2.68734168316308    0.57232033739646
H          -0.40940037202100   -3.59805747540053    0.83458139104277
O           1.17302238181640    1.82767534799801   -1.27388322342494
H           0.79688035901410    2.54343518789154   -0.72597874385912
H           1.46786605298197    1.17714496215803   -0.60334819478091
H           0.22298210178108    0.87520663680338   -2.07024135015318
O           1.12919903808227   -1.84947402305316   -1.20503331392291
H           1.45018277641178   -1.18602608734494   -0.55693412543717
H           0.13295133032720   -2.48303215997392   -0.13396389584041
H           0.71732459076641   -1.32369183757418   -1.90403912463749
N          -1.86390912412613   -0.49563984047423   -0.38976352828445
H          -2.85788627301162   -0.30047289811769   -0.43043597459418
H          -1.68062366499904   -1.47924380846287   -0.15217633356812
H          -1.38162104329222   -0.23768518661969   -1.28512719892490
H          -1.38798193909463    0.08861845057491    0.42497340226823
