    26
        -50.44985192  Gyration_radius:  2.67266115659 Dipole_moment: 3.401
 S          -1.12937790086302    2.07289086880712    0.87512457551487
O          -2.24162535772254    1.16843973224253    0.56477911383261
O           0.10688845269601    1.59602870691311    0.27552525452775
O          -1.04551362230670    2.37437800023177    2.28080968676817
O          -1.45003378764616    3.43861704587576    0.13556746416123
H          -1.99180046754614    3.90859128558376    0.76152191584756
H          -1.21887963507617    0.79057199609386    2.89640238068664
O          -1.39805133233955   -0.17010836619561    2.94862448252039
H          -2.29521359715564   -0.26989731206660    2.62008185961925
O          -1.47354290290501   -0.78207172343727   -0.78755009449895
H          -1.94276611919493   -0.00463829200922   -0.28449879005761
O           2.10512313747490   -0.79949864397695   -2.62496673856824
H           2.04586826960627   -1.41811822777107   -3.35412637941060
O          -0.04918880220695    0.65839167027747   -2.19638148597463
H           0.79623280826325    0.18402351267938   -2.41044905167097
H          -0.88848601118836   -0.22501001348162   -1.53727204077300
H           0.14348284247780    1.23262716222535   -1.42479121139912
O           0.28231255323033   -0.92675953621585    1.05389435677373
H          -0.25298468834797   -0.85405040381648    1.87907679393246
H          -0.77228610890569   -1.06543051621050   -0.09550306408579
H           0.48965910675598    0.00612042510496    0.83412934869637
N           2.45713474350932   -2.28055344500333   -0.40213372412047
H           2.33281153707644   -3.28425037733070   -0.44906520012017
H           2.26767822316287   -1.33603298402525   -1.80483065538313
H           1.75728749562122   -1.91295086559115    0.23818166281841
H           3.36527118624999   -2.10130972639011    0.00784954091474
