    26
        -50.46163588  Gyration_radius:  2.55715216014 Dipole_moment: 2.226
 S           1.10461073186541    2.00685386257316    0.42312070320877
O           1.42810556263562    1.38351410242534   -0.83888471870734
O           1.14097585218973    1.02637753172850    1.50704946880765
O          -0.12309532547922    2.78018516371967    0.42711452368895
O           2.26199886634029    3.05543491674515    0.72641189377765
H           1.82891480671020    3.66757037424428    1.31274938791275
H          -1.34423341586074    1.77627452328524    0.17781508061600
O          -0.24591759243393   -2.37971091598363    2.16236424989764
H          -0.32092295341333   -1.72869644487876    2.86329117855894
O           0.01548491689050   -1.67758608232555   -1.81670480334797
H           0.33154529160867   -2.11701475987802   -2.60652676710400
O          -2.08206931555104    1.16109551328189   -0.06806751103646
H          -2.89441323261485    1.63874747136466    0.10780744232407
O          -0.62263448646544    0.75722236607976   -2.38211720273305
H          -0.25272179257935   -0.74958889662059   -2.10456775992594
H          -1.33884636379472    0.94760629604622   -1.75487114931153
H           0.17919734518941    1.13146857713254   -1.95966293711863
O          -1.89553516258181   -1.58067266076898    0.26173192853033
H          -0.98630019475714   -2.18453517291978    1.53299866372750
H          -2.00865916823992   -0.61503211717449    0.23574791617143
H          -1.40369271639065   -1.80153104460729   -0.54104496242627
N           1.46820520380720   -1.31302516508256    0.45353492298499
H           1.00467252150276   -1.39032010724048   -0.48024591769664
H           2.43994217265064   -1.59561850447083    0.39735632132730
H           1.39670131439564   -0.30714042784018    0.81321626954689
H           0.91868714437169   -1.89187838882587    1.15038378833628
