    26
        -50.46365347  Gyration_radius:  2.41772783947 Dipole_moment: 9.109
 S           1.15092954790500    1.28776763258725    0.97752418890630
O           1.21211039382751    2.30603142285779    1.96829665086221
O           0.16859517858299    1.51236384817749   -0.08228618220860
O           0.94021190628918   -0.06555277686415    1.56190327893927
O           2.54121278933626    1.18675473026011    0.24520122098639
H           2.41153642438245    0.53203693824282   -0.46507098958634
H          -0.33778987543759    0.44780205575473    2.63066407850060
O          -1.11094101366040    0.92895242940637    2.96933255670940
H          -0.78062078289175    1.82102181334785    3.11092269149387
O           2.07922406221758   -0.62302313289028   -1.77269300784373
H           2.76154235826609   -0.50381358423987   -2.43502463018442
O          -2.02544671666447   -1.22631764525307   -0.94899160666370
H          -2.85649861473845   -1.70100749736208   -0.98202663268812
O          -0.19739200497297    0.40727194628836   -2.43799104988436
H           1.24220079335238   -0.21309011155066   -2.14790232352232
H          -0.95106148818292   -0.16062267192497   -2.22793524354731
H          -0.12409064329745    1.01134031980189   -1.66799459358162
O          -2.30596599677265    0.85199802034886    0.54190585339747
H          -1.47819912508445    1.28653673058113    0.24910497357094
H          -2.19003442640722   -0.42235293979757   -0.35612542000702
H          -2.17912693841952    0.77984098067852    1.50765800257224
N           0.40024263108732   -1.92563285892898   -0.05935168304839
H           0.61405762967819   -1.12809111924044    0.68220047176248
H          -0.57019446955055   -1.76428287243350   -0.42413868196904
H           1.09360591529688   -1.78589816278075   -0.80584363857235
H           0.49189243585882   -2.84003348506865    0.36866173560574
