    26
        -50.44985190  Gyration_radius:  2.67263032432 Dipole_moment: 3.400
 S          -1.27526387675895    2.14923664315353    0.30233182175513
O          -0.38473718664720    1.45330540408047   -0.61303264312422
O          -1.13362789040135    1.62655010290358    1.66556992459423
O          -2.65092081839493    2.21197369217914   -0.11896240968620
O          -0.74369796265973    3.64272627161056    0.34394902624114
H          -1.50950865735288    4.14456132561784    0.60458044201334
H          -3.14959995745872    0.65954336174315    0.39004466940443
O           0.51719950125358   -0.24149348912089    1.75242687065723
H          -0.14092581999371    0.55178673968174    1.87750385557665
O           3.07805837110716   -0.94221428690142   -1.26921015697121
H           3.82663978485371   -1.41093002604031   -0.89814112743893
O          -3.15502216325342   -0.21618123470487    0.82687960651335
H          -3.01852714703815   -0.02583636800094    1.75852643722166
O           2.06783088853265    0.95765642340133    0.25378582377353
H           1.32345046539408    0.24262168294011    1.17782231362598
H           2.50009454830968    0.31232456246492   -0.36453867940320
H           1.30831556236788    1.34225619431979   -0.23363949377917
O          -0.88532599357054   -1.11056345332185   -0.19010574842190
H          -0.70816222435702   -0.24486959115387   -0.61505577975898
H           0.01916188606254   -0.79730567612321    1.04969195557644
H          -1.80929618349780   -1.01778528475398    0.14237246668168
N           1.11996085070662   -2.76714242926228   -1.57457589518427
H           0.90108996297028   -2.89861810149514   -2.55431014061094
H           2.36158444343689   -1.61459969864642   -1.41601881668223
H           0.31378631027426   -2.32363377219087   -1.14066893385151
H           1.22744329606860   -3.68336897234563   -1.15722539873203
