    26
        -50.46770720  Gyration_radius:  2.51927547263 Dipole_moment: 3.830
 S           0.78912245056729    1.87583520471193   -0.79118399777192
O           0.42800413330841    2.12151918641268    0.59388907679831
O          -0.20822786050573    1.07707291998210   -1.48787034434632
O           2.12337180784587    1.32381750061986   -0.93940800455404
O           0.80314986937857    3.29420070444493   -1.49026638652928
H           1.11715412366653    3.09323716328162   -2.36601929432537
H           2.33478511961480   -0.13040517558461   -0.33581015886405
O          -1.89132575938054   -0.91128738976408    1.60631558565212
H          -1.90764792461612   -1.64284985917711    0.94275957554898
O           2.36979727227590   -1.03333261432358    0.08185351280255
H           3.28248294808954   -1.31982518668037    0.02369422788117
O          -1.77091105528157   -2.66685978250595   -0.37306673355752
H          -2.51984970047643   -2.65449650368543   -0.97053441511144
O           0.25537513712969   -1.56707413429501   -1.68952423461959
H          -1.00241686322839   -2.33092688506173   -0.89565076572137
H           0.04296838192263   -0.61644757890040   -1.74121219551160
H           1.05493438155513   -1.62087795316967   -1.14829321134995
O          -2.24188709243883    1.33317464297176    0.20481116932291
H          -1.83102088217858    2.03406659502416    0.71909004708968
H          -1.62147825205879    1.19021019075389   -0.53673532503001
H          -2.20768083870142   -0.11233445293344    1.12280170748118
N           0.53827568612872   -0.15779167039986    1.91319544005746
H          -0.48910278204806   -0.56338629445652    1.82534263742537
H           0.82012092380233   -0.09979958628071    2.88578238958950
H           1.21511037932644   -0.71808344944580    1.36903535895436
H           0.51689639633919    0.80264441841596    1.47700432865871
