    26
        -50.46305564  Gyration_radius:  2.55454747977 Dipole_moment: 5.317
 S           1.08500281616286    0.40390396586926    0.17720322834928
O           0.12455972117839   -0.18223219740243    1.10588179702495
O           1.43638387661514   -0.55024335702495   -0.87913939080106
O           0.60870430889706    1.66296034403237   -0.37579821420344
O           2.39673525619380    0.67516118250789    0.95947262747540
O          -2.52433700905197   -0.78616081033083   -1.75909633921501
H          -3.26203338048784   -0.17486180719558   -1.74209975647020
O           0.13134894243606    3.48767155599938    1.48410972038354
H           0.21479001352508    2.85823526347189    0.73555597322028
H           0.65251739210431    4.25532228339244    1.24300872342295
O          -0.42455661032277    0.62993947781214   -2.57747867203169
H           0.33644689829957    0.06372321934975   -2.73396336262180
H          -1.75747586635662   -0.27047509587208   -2.10759456176605
H          -0.14581778800423    1.17561581069439   -1.81464153617614
O          -1.71458429946505   -1.94871844043433    0.48403411355014
H          -2.15755148490636   -1.54247805301746   -0.29874842937423
H          -0.57876887845766   -2.60994162025124   -0.12466631499566
H          -1.17924745969148   -1.22420369017199    0.87924466588552
O           1.07839316588021    1.48878432434811    3.00378567123850
H           0.71310847829573    2.33727415912139    2.67449130453923
H           0.44611170005258    0.81471931028585    2.71297986079992
H           2.06905193365248    1.03892999666437    1.83260823820379
N           0.38812004085806   -2.88091016666565   -0.61228705285463
H           0.88876716425958   -1.92563520365902   -0.72665225635223
H           0.23373551976570   -3.30562934049899   -1.52092197691053
H           0.94059551857124   -3.49075111102997   -0.01928807032734
