    26
        -50.46770719  Gyration_radius:  2.5190888667 Dipole_moment: 3.824
 S           0.64833371909170    2.08433932684971   -0.01424353946290
O          -0.80019030101649    2.09453825320234   -0.11903835170392
O           1.25451272110239    1.05659375757471   -0.84756922522293
O           1.11664823486467    2.01313730487390    1.35776293102513
O           1.13079334173133    3.47646674424589   -0.58855771901537
H           2.06947943895889    3.45446367610450   -0.43195379007120
H           0.77545841513158    0.66669611281877    2.12912935188961
O           0.50365730093903   -0.20373745712503    2.52829334011878
H           0.76763082200026   -0.17003052918442    3.44898120396536
O           0.41566686277691   -3.06265987554687   -0.91062785379107
H           0.85569550525641   -3.24919133380633   -1.74103998635119
O          -1.78137814596918   -1.59861389554710   -1.12067001068504
H          -1.03483347095791   -2.24254087542510   -1.05874533337361
O           1.91505109769455   -1.26575465945289    0.34307740993729
H           1.01850399843638   -2.45620994234313   -0.41534043257399
H           1.79024244200053   -0.43633122180580   -0.15483920648947
H           1.54293387673336   -1.09566455138155    1.21925645574440
O          -0.80252662578670    0.50587632704462   -2.43837714390243
H           0.05292090203969    0.63007401397086   -1.98224375444542
H          -1.48324229106435   -0.91324031585967   -1.76384631031626
H          -1.32626635315871    1.26230985121611   -2.15913427469171
N          -1.73962918918299   -0.11551504184862    0.96805389283385
H          -1.45580446536221    0.81486282884217    0.55948132547807
H          -2.64181008041644   -0.04183163082383    1.42562632196829
H          -1.78581404284041   -0.82771092474726    0.12034417917832
H          -1.00603369299720   -0.38032593188941    1.64622051998261
