    26
        -50.46770708  Gyration_radius:  2.51919977969 Dipole_moment: 3.826
 S           1.73087903756492    1.07379396581235   -0.78716768786329
O           0.46311077793054    0.98279147158610   -1.49604001825961
O           2.20788732446045   -0.22426550404653   -0.34374220368855
O           1.68299965540467    2.05500511038569    0.28145037010841
O           2.79864064360159    1.59102552682555   -1.83252520136927
H           2.48460384633659    2.46606838698356   -2.03662209236520
H           0.63837730687220    1.75851985743760    1.44039764243336
O          -0.03345765169288    1.47918312324481    2.11995506868040
H           0.02819845038662    2.11496586248595    2.83440484302620
O          -1.04690260061600   -2.42640949448353    0.07275955176302
H          -1.88832728382413   -1.91226772764121    0.01467694979453
O          -3.11687552664522   -0.79384204212277   -0.18291365926638
H          -3.54836320979051   -0.81843364283769   -1.03797955944923
O          -1.77294141341778    1.49368899367696   -0.08675342936113
H          -1.37803083669934    1.59268434720318    0.79037506817738
H          -1.02038642440885    1.37577690989180   -0.69605040343252
H          -2.68553040890707    0.09325214525240   -0.12294162574052
O           0.42508518585795   -1.62603442159243   -2.00511252985999
H           0.31603910713021   -0.65632518062162   -1.94987129539562
H           1.34168217589302   -1.77104273709660   -1.75351109441294
H          -0.58874454969745   -2.27657730386253   -0.78733766248540
N           0.59515062716225   -1.11721183355674    1.54084078502747
H           0.19108215740974   -0.25371764709086    1.94022193482037
H          -0.16425854096279   -1.70119717964472    0.98427386827516
H           1.31732088476616   -0.81693001240594    0.83287595888731
H           1.02276124582544   -1.68250098386926    2.26633642205238
