    26
        -50.43911259  Gyration_radius:  2.55732673107 Dipole_moment: 1.181
 S           1.11893597278343    0.07700761475137    2.07545881391616
O          -0.14456872075103    0.73778052307552    2.07130361696950
O           1.23676300110467   -1.17418620981092    2.74001788666406
O           2.14949012999896    1.07666737053184    2.76184031646698
O           1.67791563662279   -0.03729208805348    0.65599045408690
H           1.40945151162675    0.75254720540399    0.05889697747077
H           2.83983953700254    0.53872174721452    3.14392093157661
O           0.68887337901640   -2.33318017722772   -1.68965162622984
H           0.28388700340294   -3.09726100823450   -2.10276358711100
O           1.01272071634535    1.95739396652035   -0.75643567558589
H           1.55588483731202    2.71817042295862   -0.54290818696565
O          -2.30053200675911    0.18739400025779   -1.05563358330928
H          -3.07351682543918    0.23626427265715   -1.61920686379958
O          -1.31706416697747    2.32151150893442    0.22898993972633
H          -1.82741800716837    1.62115621314211   -0.23502319993370
H          -1.08518516988298    1.92088093606680    1.08186623179694
H           0.06961983221535    2.17238138572902   -0.42874294512540
O          -0.15767154768556    0.05016859166454   -2.57664864664856
H           0.42725379807388    0.71406095567814   -2.19568740260454
H           0.23849257697368   -0.81874653379954   -2.34323568363617
H          -1.51953235727763    0.10279404704877   -1.66816152670530
N          -0.74382579517539   -1.95761614481890    0.57871917064037
H          -1.32656994316781   -1.15416625025313    0.36531776272582
H          -0.11150069179455   -1.69780264151140    1.32577663004343
H          -1.35304479919262   -2.68509721818868    0.93359881617199
H           0.25130209879874   -2.22955248973625   -0.80759865060484
