    26
        -50.46305581  Gyration_radius:  2.55464518271 Dipole_moment: 5.322
 S           1.01562058901532   -0.14803899325731    0.56873210564815
O           2.55528505103527   -0.17315514616858    0.75532212983721
O           0.57687243691206   -1.54439758950522    0.65433049139528
O           0.43535789948074    0.66123837347632    1.62997484063432
O           0.73517634669510    0.40283919094927   -0.75270717371675
O          -3.13843227339138   -0.26940574353889   -0.40186909084924
H          -3.65795714931521    0.51950106086647   -0.24072569941030
O           1.33087319801793    3.15413109178403    1.63345645466253
H           1.68151146500363    3.30931515813663    2.51210955823476
H           0.89385116295891    2.27583739105179    1.66800357251897
O          -1.79934540967853   -0.73102217071395    1.85176399135885
H          -1.34092906140245   -1.57535757605143    1.81794694029584
H          -1.06964125244715   -0.07975846317295    1.87953660324638
H          -2.67857770920889   -0.46512714623434    0.44989950177729
O           2.78657163904026    2.12018801113572   -0.37023935114927
H           2.84461805125459    0.70422444474034    0.37017031874944
H           2.04087752324644    1.79998699342524   -0.89948670717040
H           2.38473706495616    2.70980582603902    0.30255591638299
O          -1.27935777082849   -0.27161182607415   -2.29464335881435
H          -2.05659114681300   -0.19234630032608   -1.69167197834395
H          -0.54480184846327    0.18499895039774   -1.82623861179219
H          -0.79882474289031   -1.60338535988286   -1.98836673650944
N          -0.34295242039310   -2.51763188549665   -1.53856703164938
H          -1.04854878987922   -3.22074258782995   -1.34454024733136
H           0.08770587773950   -2.15497817820984   -0.61152841107306
H           0.38690125928969   -2.89510750497408   -2.13321802690591
