    26
        -50.45683580  Gyration_radius:  2.52354324427 Dipole_moment: 8.074
 S           0.99682252276383    1.55878939552304    1.31775579629655
O          -0.03181865735619    1.70576264840288    0.32338085514321
O           2.16577212691407    0.83813114509070    0.79782530593638
O           0.52993290674017    0.96076877254451    2.55950996593016
O           1.50749538285832    3.00950811831243    1.68441007713727
H           2.07994467875433    2.83827421366455    2.42511489307188
H          -0.26064160948492   -0.35044567584180    2.20107589974321
O          -0.63382143197161   -1.23673833557458    1.93287617189842
H          -1.06411555751042   -1.59179778298254    2.71271796113657
O           0.16930111324610   -1.43391719789726   -2.11736275017279
H           0.43163663786645   -1.77072790378807   -2.97443608434039
O          -2.44324538122733    1.38328812993859   -1.21028265380112
H          -1.89614197829282    1.75084785958701   -0.50518622230409
O          -0.01668294234126    1.10472367878296   -2.28586113825168
H           0.26616252053625    1.41389947352928   -1.40511018624422
H           0.09850707444547   -0.42044301277599   -2.22514516839652
H          -0.98688221328541    1.26370360539590   -2.24502479030819
O          -2.15949975701847   -1.25318710067487   -0.45594755932627
H          -1.72033874795746   -1.18028773818736    0.40342931389085
H          -2.57543290291567    0.44892710324525   -0.96424333390976
H          -1.46918873810366   -1.46104538418749   -1.09874788302965
N           1.41566227394584   -1.54353673833613    0.22130426790802
H           1.00561842424965   -1.56432888651447   -0.75087078723109
H           1.80366276614572   -0.55015109406486    0.41559399271500
H           0.64653793881933   -1.67659671307331    0.90836929105312
H           2.14075355017485   -2.24342058011185    0.33485477544603
