    26
        -50.46770716  Gyration_radius:  2.51922422347 Dipole_moment: 3.830
 S           1.85042950232031    0.64440356071658   -0.96296469231296
O           2.04351176985935   -0.73937997203254   -0.56648496812193
O           1.17550950286691    1.42348061742812    0.06442813948470
O           1.20283409086532    0.77843973218767   -2.25509721124864
O           3.30115213570810    1.25484972436640   -1.11553507548826
H           3.12675731296964    2.12922023571891   -1.44873025675913
H          -0.29667344366545    0.25968368873682   -2.32837020972268
O          -1.22254034671644   -0.10239053480804   -2.27630934820031
H          -1.57616373492447   -0.06156097675011   -3.16610713945582
O          -2.49121732647107    0.60043302431920    1.95395121609806
H          -2.38648962094478    1.22235196243299    2.67521834433562
O          -0.85039160605543   -1.47782457844232    2.01953353486096
H          -1.53780348468441   -0.76995003576869    2.06504494236233
O          -1.48032442214238    1.77535254964529   -0.20180453945587
H          -0.51448157570304    1.77447800178657   -0.06556487934953
H          -1.62983117782172    1.20997206350571   -0.97192944916149
H          -2.18731358635943    1.07441669596088    1.14187736701934
O           1.49412556172760   -0.20812811086767    2.13851427321521
H           1.34558654015793    0.51839712535689    1.50177957271717
H          -0.00150333359530   -1.03390727029621    2.25335058019333
H           2.12824797686507   -0.77900332741818    1.69520287197996
N          -0.31163248384833   -1.91772089536167   -0.44636230864371
H          -0.89092477218320   -1.36420812973910   -1.09928156677865
H          -0.62833905121616   -1.76816890090566    0.60495479022358
H          -0.33406657605623   -2.90147342625714   -0.69226322167306
H           0.67154214912615   -1.54176282350066   -0.51705076609425
