    26
        -50.46365343  Gyration_radius:  2.41760241161 Dipole_moment: 9.112
 S          -0.04442662072455    1.05706791889043    1.67908758516202
O           0.66833817436438    1.30186017674684    0.42580653101206
O           0.65623947681416    1.44088118005208    2.85555476423563
O          -0.49224589786948   -0.36255172459200    1.71881914081607
O          -1.37849103938172    1.88639041688089    1.57097544251195
H          -1.77018013892676    1.63440127239035    0.71478208165095
H           1.04130125322242   -0.97133055917662    2.28166568191359
O           2.00072080433890   -1.06533786608295    2.40277223224744
H           2.24386012772671   -0.28642747970561    2.91179927107799
O           0.79681905391387   -1.38487704607308   -1.98808898306800
H           1.21044002051570   -2.09019701619520   -2.48655666424883
O          -2.38674346079044    1.17123829008623   -0.88512833279227
H          -3.01030756162543    1.84737905525968   -1.15426939019899
O          -0.10252204793486    1.33657765205395   -2.08564205417835
H           0.31909867984286    1.49773755813607   -1.21413138992089
H           0.24521422139303    0.47942872307264   -2.36681082049685
H          -1.55585291235681    1.31520012971242   -1.43143706349468
O           2.45160181418022   -0.53178369166669   -0.21204492612396
H           2.50052902567094   -0.97046575286290    0.65928229200130
H           1.48589506266251   -1.08555684762476   -1.30942093698265
H           1.95469441499850    0.28827598421998   -0.01120211942356
N          -1.38452849134279   -1.32781307638090   -0.43806285353381
H          -1.87070441058276   -2.20472992312590   -0.28836736264074
H          -2.02267927306952   -0.59273821515586   -0.76978771236097
H          -0.97816165619292   -0.94230249208796    0.51998216038908
H          -0.57790863884447   -1.44032665677070   -1.09957658355342
