    26
        -50.43911256  Gyration_radius:  2.5590807885 Dipole_moment: 1.186
 S           0.98227774566451    2.08646853713900   -0.51679594701726
O           0.39934270668630    2.02066935998761    0.78284179286120
O           2.39882576927877    2.06876864555846   -0.63503242563409
O           0.46909847804836    3.44177312453139   -1.17415023999207
O           0.37386493090972    1.02977237415576   -1.44063586695875
H          -0.60968721941944    0.83165156527541   -1.22605507757378
H           1.13144019036399    3.70577889890365   -1.80944282887508
O          -0.70644548377565   -1.46404362772033    1.95128816383525
H          -1.03657774964424   -2.13352128787304    2.55155511592690
O           1.17402303715500   -2.31690487930688   -1.42890792104864
H           1.62719180164236   -3.14366446925356   -1.25689188750750
O          -2.06227074755326    0.61251857607380   -0.88647128657140
H          -2.61366500498799    1.31164762145915   -1.24218864101238
O          -1.90306205812252    0.91219716916803    1.64645872327417
H          -1.53283230581618    0.04188310790363    1.91447555892719
H          -1.12764825173123    1.49297803492124    1.59040554899929
H          -2.09141714023836    0.70778330484274    0.12995228130536
O          -1.33821170221068   -2.15317645631609   -0.50849919829363
H          -0.93590490448170   -1.78025473038447    1.03496898380020
H          -1.71590997681751   -1.34569798756734   -0.87379478179727
H          -0.46715034481986   -2.26267548531138   -0.95067606987210
N           1.97708149071989   -0.68172082482880    0.57608985002062
H           1.52338926557661   -1.66623894331644   -0.76947021262291
H           2.13108505015929    0.24690598734210    0.20280389844883
H           1.17206286418375   -0.64364578316279    1.19344526768361
H           2.78109955922461   -0.91925183223124    1.14472718968713
