    26
        -50.43911257  Gyration_radius:  2.55842428952 Dipole_moment: 1.180
 S          -2.25209410381327    0.70721524534803   -0.08443337330486
O          -3.20816532007386   -0.30948632902524    0.18603019797801
O          -1.50814841345264    1.25855817399885    0.99974546540735
O          -3.02924878029931    1.91954371373917   -0.76195143478597
O          -1.31974536104020    0.25343956806449   -1.20912120323440
H          -0.47498269298570    0.83084684040403   -1.28349276203337
H          -3.80680677015863    1.54945050958239   -1.17471515009884
O           1.97353624273812   -0.25368902139554    1.57835955265357
H           2.81079738822922   -0.40787445844132    2.01734184176370
O           0.72635019639354    1.73840600409521   -1.36681916564080
H           0.51233864275711    2.56193647106965   -1.80877749515370
O           0.51183259743366   -2.65224268746326   -1.21627422488241
H           0.83577547844746   -3.52492034125389   -0.98845178412062
O           2.28908011146990   -0.65719026498646   -1.00263485331979
H           1.68026476924280   -1.40373371047726   -1.19840571710903
H           1.88239773361065    0.12115148389010   -1.39874658675905
H           2.12916343252035   -0.44988019594698    0.61419106227017
O           1.01444061467350    2.20598874136884    1.12907429840937
H           0.92152795033463    1.97343472712295   -0.39230038678511
H           0.07447023375655    2.06669471856354    1.32589732324424
H           1.44823808082831    1.37516845286883    1.42546366285940
N          -0.69223118707022   -1.77111436193162    1.04443439398817
H          -0.92148696625286   -2.41514212667404    1.79203244036123
H          -0.03524408663935   -1.09466567947100    1.42051550131244
H          -0.02072951666785   -2.34248613038353   -0.44110768945912
H          -1.54133027398428   -1.27940935267127    0.79414608644111
