    26
        -50.43911244  Gyration_radius:  2.55919439907 Dipole_moment: 1.184
 S           2.30013468859098   -0.06157752166124    0.54035919133979
O           1.48758162421626   -0.91388732591462    1.34437774796076
O           3.13259062964914   -0.64493583865266   -0.45347981354484
O           3.24586951939122    0.73673149891945    1.54078598943443
O           1.46534909175336    1.06092964986831   -0.07880179023702
H           0.68419008495797    1.35282690783989    0.51896592934072
H           4.03376799120570    0.96293857950449    1.05096023186335
O          -0.42178297162669    1.76336990495438    1.45778908261799
H          -0.09320950931605    2.32961868811194    2.15832250267617
O          -0.59850479544468    0.72294552665291   -2.81177971635684
H          -1.01902349243667    0.36827350021126   -3.59653628661717
O          -2.15079690155319   -1.33723557449056    0.19464324158842
H          -3.04137371409209   -1.68977697878067    0.18542262281505
O          -0.94472923548531   -0.53423102968825    2.44683202008848
H          -0.04746698497300   -0.87129552512165    2.29514412712891
H          -0.70332159376387    0.88692479711467    1.90016285286850
H          -1.47700374182294   -0.93223323432414    1.72255785505462
O          -2.21279824820329    1.13228040935942   -0.71174484856902
H          -2.21519469975425   -0.41903806397178   -0.18623311253492
H          -1.69976378779258    1.61996379685819   -0.05821530192581
H          -1.65188759370973    1.09870736225728   -1.51838586749420
N           0.42271558715359   -1.44948324638543   -1.55678890230201
H          -0.12928602048650   -0.03531359830659   -2.38135851358641
H          -0.21226623549323   -1.59954251229674   -0.77899968793920
H           0.51381381605622   -2.33249053092046   -2.04495291511819
H           1.33239651297639   -1.21446961113844   -1.17904665854661
