    26
        -50.43911254  Gyration_radius:  2.55867662747 Dipole_moment: 1.183
 S           1.77069745971264   -0.18077536853071    1.55317425634326
O           2.41675263832003   -1.44684995505287    1.57837795719261
O           2.03424123589776    0.70497079403534    0.46732305836311
O           2.19164805987487    0.59169389401885    2.87920603911079
O           0.26503965631333   -0.36508480374806    1.75193250485804
H          -0.27415164585677    0.47220968372431    1.50554351944197
H           2.42256613950463   -0.07492015749052    3.52287340366707
O          -1.00714073287512    1.74519988746955    1.16448467182796
H          -0.94241712296968    2.38668452113682    1.87415820333867
O          -0.51227727661502    0.64004758922663   -2.40354720179285
H          -0.88655310377073    0.84681906255273   -3.26066837693675
O          -1.75649835052878   -2.38129747403218   -0.16186279043953
H          -2.05040546356898   -3.04699882886772   -0.78551682703749
O           0.47086459174380    2.52137722684681   -0.77065613325690
H          -0.47923241166152    2.12701819591899    0.37806902319099
H           1.25786645496648    2.06561706331581   -0.43208609286866
H           0.14943180226547    1.94012555450640   -1.49530756726256
O          -2.47641673077460    0.13814830092063   -0.72589070680080
H          -1.28420400569450    0.42443035802022   -1.81201044795504
H          -2.32197701281224   -0.79499227977224   -0.45798542135047
H          -2.25014351961680    0.67090088948150    0.04422857518464
N           0.76934617906353   -1.79495689961538   -0.94537711016379
H          -0.80042815673710   -2.21734430223402   -0.36033479656020
H           0.67771169626154   -0.89200157303182   -1.40026704354418
H           1.34921995692650   -1.67577182611588   -0.12382208366808
H           1.26645966261790   -2.40424955266731   -1.58403860287124
