    26
        -50.46225748  Gyration_radius:  2.49590616484 Dipole_moment: 6.729
 S           0.32146080576265    1.93276183144818    0.51441342254828
O           1.58612823504370    1.71036493438045    1.20342154161463
O          -0.63606659726596    0.86920876236309    0.75633162263558
O           0.52440940259320    2.19186794750273   -0.89907768444215
O          -0.31344296680276    3.23623302678370    1.13895235331990
H           0.36242864907651    3.88791818012546    0.98471017810664
H           1.23613252608936    1.00660087330244   -1.70462874789938
O           0.11520471764663   -1.65296446147487    1.56211098351865
H          -0.27533529890350   -0.76570785252241    1.61092625777467
O           1.65349240276146    0.19961650603329   -2.10836872990904
H           2.14851084827956    0.50754478849348   -2.86888946796638
O          -3.16345242025395   -0.34253530485537    0.80670853557245
H          -2.35980016103557    0.17675444055484    0.95392902585863
O          -1.07859887887228   -0.45251795344444   -1.61805169778285
H          -0.24382121057226   -0.40237967517740   -2.09588650775561
H          -3.50134245489964   -0.05999235264325   -0.04609236961095
H          -0.97129911107250    0.12885692171878   -0.84671700082233
O          -1.73855941429557   -2.56523675577671   -0.03885057478061
H          -2.45580477009971   -2.08328504088038    0.40696707941954
H          -1.51662509129227   -1.99249168565255   -0.79776942138572
H          -0.52796664577598   -2.16701486367638    0.99720036445228
N           2.19658930604080   -0.69322895167538    0.40559874354238
H           2.09468499884900   -0.60628853315962   -0.62099211728931
H           2.08780650554298    0.28620766850952    0.80191952411218
H           1.36395028557060   -1.25160415703028    0.84408776550294
H           3.09131632794591   -1.09868830324941    0.65804693169692
