    26
        -50.45271684  Gyration_radius:  2.43593026852 Dipole_moment: 9.046
 S           0.56312560681481    2.22893478098099    0.42433185488884
O          -0.83469654017809    2.14764271490052    0.84770118750576
O           0.76700803184748    2.85401960807415   -0.84655709880327
O           1.18854475342817    0.90832933956973    0.50833809634338
O           1.29489701629515    3.12158086298896    1.52192522301894
H           1.14788150787157    2.65760796661955    2.34209316555284
H           1.28044424394102    0.61981586896059   -1.02185333046757
O           1.09217447669296   -1.80405753075209    1.78796586905117
H           0.75432558602786   -2.48032636450385    2.37875824095330
O           1.21822101447393    0.31613335320506   -1.97073822034209
H           1.63760159910768    1.01802947720452   -2.47177478215131
O          -1.96851921916804   -1.42341594205719   -0.57329363312832
H          -2.76293808030535   -1.74114589196885   -1.00369421052686
O          -1.49323517355498    0.95702367183038   -1.42471564889072
H          -1.38609252648820    1.52608415069455   -0.63409215921253
H          -0.61989802786794    0.94685060250240   -1.84534187327916
H          -1.83987574445216   -0.47522359062637   -0.89755013539682
O          -1.03761064171488   -0.26030998108715    1.94263296410813
H          -0.95128553149367    0.66316705722437    1.62370463750633
H          -1.57309508528889   -0.70169209213399    1.27185042022522
H           0.47120678315732   -1.03453746858049    1.88466944633625
N           0.62149547371082   -2.03212873902377   -0.78614967967863
H           1.00244907438826   -1.23122428628679   -1.32640121987325
H           0.91094718715347   -2.91561557852979   -1.19099390010717
H           0.94165991552632   -1.93941136854124    0.23123674704112
H          -0.42473570991726   -1.92613062065970   -0.77205197066974
