    26
        -50.46225730  Gyration_radius:  2.49590247072 Dipole_moment: 6.730
 S           1.41178252976116    0.61462803358318    1.31670870616158
O           2.27594229697170   -0.55130733656965    1.18515721821564
O           0.00307165367853    0.26627563077321    1.28986816141722
O           1.75261130649760    1.64104460852133    0.34893964789559
O           1.68016483009303    1.22029592862227    2.74967627721981
H           2.61420301718614    1.39965377925449    2.72458662228573
H           1.62144986830792    1.19263611932317   -1.18153701736947
O          -2.74550134288665    0.66834019220658    1.67076978379878
H          -1.79395428246783    0.50553026701483    1.74347924805860
O          -0.92878914529914   -2.07172316839154    0.17656604316288
H          -0.70713917999049   -1.41997328128572    0.86087358495938
O           1.47512340645739    0.81878806556421   -2.09103783026103
H           2.06686757948067    1.29637098763920   -2.67411782048212
O          -1.10637734202594    1.32989215177328   -0.99470538099980
H          -0.68358569201604    1.08802742685988   -0.15371405891706
H          -0.40164362079803    1.31248839336193   -1.65102357955455
H          -2.82986458950131    1.56567884650786    1.34070219152517
O          -2.93141669254529   -0.67055993808353   -0.74940761164495
H          -1.74240707731895   -1.69256530829105   -0.26096081739337
H          -3.22117696938242   -0.37697646500446    0.13115088711129
H          -2.39682645043319    0.07886378961075   -1.07473824133169
N           1.32903424875279   -1.65986715263295   -0.97372818325965
H           1.82566635823819   -1.31962561838321   -0.09863039786175
H           0.32115861875084   -1.90829709215594   -0.62747300696490
H           1.31686660846580   -0.86115134378327   -1.63223373948521
H           1.79474004209235   -2.46646751614850   -1.37517072633858
