    26
        -50.46566950  Gyration_radius:  2.46184903104 Dipole_moment: 7.901
 S           1.08638698510731    1.40894143543301   -0.35667844524871
O           1.92926815612827    2.22119751571635    0.45513301882680
O          -0.34187908962971    1.49796024580450   -0.01117199046752
O           1.47783770928069   -0.01766331394506   -0.37356395336762
O           1.20493605774442    1.89325992506517   -1.84045989506895
H           0.70683364905740    1.23642397172016   -2.36760018405456
H           2.16181715402616   -0.10246553697996    1.25417365651408
O          -0.77619794423026   -2.08506417959967    2.12545903223826
H          -0.03096246783941   -2.46391277201803    2.59593120453592
O           2.29975295547309    0.13101041702711    2.18835409308878
H           2.59912100857807    1.04588905057745    2.14129553426040
O          -0.40210119347745    0.24394020403655   -3.22190579886930
H          -0.61186674224484    0.72181836205849   -4.02680961717311
O          -0.36265814394600    0.45289789149770    2.47453538379311
H          -0.45986510248967    0.94437310074147    1.63901071666857
H          -0.74541714559627   -1.10516769016088    2.33946992633501
H           0.60603608281632    0.38590170061450    2.60723361545446
O          -2.22408864315684    0.27353313419856   -1.20220235576202
H          -3.06853170453464    0.55153401654237   -0.84428090515578
H          -1.53030868439299    0.82454702574624   -0.72635823692324
H          -1.19787255130105    0.26675120912017   -2.66182790807687
N          -0.47433744792378   -1.69202593638719   -0.45288532235604
H          -1.29594123775235   -1.15090711592258   -0.77477809403397
H           0.36910940336887   -1.01762885800568   -0.47007552895154
H          -0.61795503261258   -1.97607899284080    0.56490759836314
H          -0.30111601937724   -2.48906481959541   -1.05490553443160
