    26
        -50.46305563  Gyration_radius:  2.55465012288 Dipole_moment: 5.319
 S           0.78431524032460    0.86947718708759    0.03732642102753
O           0.32001296995058    1.22490604217380   -1.29526985498874
O          -0.10122733486659    1.40313109736535    1.07691444581285
O           0.95259044985824   -0.57161137702937    0.19010830806004
O           2.16540191068493    1.53608536736206    0.27117051163790
O          -2.92133303906100   -1.23151906962620   -0.19490299055909
H          -3.17241981981824   -1.60524137304164   -1.04079438465038
O           1.97891390692904    0.44163447743849   -3.20597879359968
H           1.27554353619387    0.70836404183860   -2.57536130381866
H           2.19308829842507    1.22799083615556   -3.71076474572231
O           3.35079232798418   -0.32828897235943   -1.03181337916479
H           2.79617328336789    0.92579838974476   -0.21022003500869
H           2.65237237268526   -0.87688971667419   -0.64456024052017
H           3.05109412462180   -0.14646861177201   -1.94778309694172
O          -0.85225007240871   -2.22768004864684    1.13366237297924
H          -1.65674624548514   -2.00325600450837    0.60788399515838
H          -0.10763038265209   -1.79366964639759    0.65961506335238
H          -0.90308468173810   -1.24032166990879    2.19250867480908
O          -2.25032707487071    1.29663791824121   -0.68665590041007
H          -1.36450104986719    1.27257247582935   -1.10144461204743
H          -2.71767550001746   -0.28148028457975   -0.37219200717975
H          -2.09886980738104    1.77987295676443    0.13051761700950
N          -0.86537463082389   -0.32000150176075    2.82296993943178
H          -0.51975243123858    0.44328900637943    2.13422391785268
H          -0.20312090779403   -0.42278052710928    3.58429528158000
H          -1.78598544302060   -0.08055101293678    3.17654478596050
