    26
        -50.44529019  Gyration_radius:  2.48662387226 Dipole_moment: 3.304
 S           1.09647517413267    1.61561047107667    1.20081342838442
O           0.90087912415163    2.56857268449617    0.09381225927667
O           2.40154420086315    1.02899752504654    1.24418354564873
O           0.00465114612654    0.65452255496831    1.20168546031533
O           0.93036327150073    2.47554327499178    2.52669259374212
H           0.04387016964144    2.81785156187396    2.45807080280930
H          -0.06960279247588   -0.94202010277268    1.51385835474137
O          -0.18440582575971   -1.91671301522908    1.62519371278924
H          -0.61751861857535   -2.03548116852678    2.47158500406521
O           0.35599744270711   -0.64960486763455   -2.11459523174587
H           0.84292660696424   -0.59751766481046   -2.93790975874714
O          -2.77532179272418    0.62959240004662   -0.24444594816074
H          -3.56016115766007    0.65219557721199   -0.79538974898955
O          -0.72884196977460    1.56984938038326   -1.43453102975848
H          -0.02406360350664    2.05158455357317   -0.76403665180127
H          -0.28067070101751    0.69640167665513   -1.72277000300624
H          -1.54572083933179    1.28035671045226   -0.87621915759719
O          -1.75595046614385   -1.75436276595211   -0.58050804671230
H          -1.23975142143107   -1.95150677913167    0.22721333534731
H          -2.44937940882546   -0.31544264891355   -0.25951458604531
H          -1.09297391032637   -1.55573362474019   -1.25559537077925
N           2.02627510368234   -1.29995062188117   -0.27901036972112
H           1.04483372265594   -0.91118244110294   -1.37756413516781
H           2.24845509390672   -0.45036832774315    0.24687692037725
H           1.52982181692849   -1.91177302420603    0.36090250586881
H           2.89826965429391   -1.74942133813120   -0.52879790513221
