    26
        -50.46710406  Gyration_radius:  2.4363551298 Dipole_moment: 5.128
 S          -0.27065353183471   -1.49218469167196   -1.13253454273454
O          -0.42544142321519   -0.23480051148478   -1.87691425521562
O           0.24956479847754   -1.24667284779253    0.19698673374013
O           0.35649637869892   -2.53825337504201   -1.87773959261971
O          -1.78874182149377   -1.97812295797844   -0.86545405315383
H          -1.91374290407327   -2.64947710703967   -1.52892603817665
H           2.19973278578534   -1.43072236180535   -2.30025461562147
O           2.22958940925519   -0.47081128506063   -2.23532376937941
H           1.30200825377355   -0.20422782889253   -2.31663824064536
O           1.02841397763100    2.01735028747058    1.38304612898538
H           1.55665769387709    2.79725267783555    1.55556530588887
O          -2.64342928380962   -0.07311203881209    1.13666966645921
H          -2.52852437622085   -0.84750002648090    0.57131392607254
O           2.52635935365954    0.12972333655131    0.40391629066125
H           2.72229116787523    0.12772210760775   -0.55012728840599
H           1.66047756048961    1.32683503814530    1.02452584905587
H           1.82401342076793   -0.54154604102885    0.48117203231796
O          -0.43345705650285   -0.20970245137128    2.59805894575769
H          -0.09376825815762   -0.75696092522810    1.86976016546671
H           0.06893264397498    0.61220712126064    2.54587618509602
H          -1.99738042885636   -0.18533890028856    1.87442542097214
N          -1.12826728816130    1.60205604392336   -0.19357678090835
H          -0.31500445110513    1.85357652668002    0.41302085941606
H          -0.80149099914373    0.91501523354499   -0.94088775439463
H          -1.84368457255815    1.05108148854069    0.37979224207417
H          -1.54095101882228    2.42661349896060   -0.61575280937293
