    26
        -50.46710387  Gyration_radius:  2.43628901389 Dipole_moment: 5.131
 S           0.04883630537131   -1.77033832845897    0.66756835482172
O           0.39466287323305   -1.74020928083930   -0.76023870045391
O          -0.02539101180655   -0.42971465526944    1.21133057900764
O           0.79257548799213   -2.72495011656848    1.42810586133075
O          -1.48599062054140   -2.27634984216953    0.68759452789341
H          -1.40067743057885   -3.19672310450721    0.91601335718596
H           2.76638372542234   -1.91450341901180    0.92692051772559
O          -2.85967432462876    0.06171452029445   -0.31965592087200
H          -2.61563853981647   -0.76195961625395    0.12138360409206
O           2.89026570120695   -1.34488543446252    0.16089889053198
H           2.13094869219741   -1.54895701288819   -0.40471604901013
O           0.58966424105634    2.47652613190934   -0.74753602738289
H           1.08977200051781    3.18659344757094   -1.15094608683783
O          -1.52985099339266    1.81550919993105    1.16147543412724
H          -0.95098382506622    2.36214708230887    0.61673058136927
H          -2.61365253736383    0.78192919404864    0.30891455062657
H          -0.98535104399234    1.05117139484566    1.41564350118938
O           2.10134640529908    1.15273110029346    0.90400812070044
H           1.35245996072253    0.64546190151711    1.26688689547689
H           2.68529170461243    0.45527960919642    0.55575455711632
H           1.21807731591137    2.01748823164152   -0.11564599658285
N          -0.71558739207834    0.35518926242311   -1.79890397392978
H          -0.79575122979953    0.33375229793440   -2.80962190970737
H          -0.19275487008101   -0.50230700497367   -1.44043665762298
H          -0.21597796012258    1.21490835602474   -1.47651538377940
H          -1.67300264402188    0.30049608694516   -1.32501263619315
