    26
        -50.46166210  Gyration_radius:  2.51034373892 Dipole_moment: 6.137
 S           0.36854460262340    2.20742868346746    0.05349679703602
O          -0.24592919162933    1.60148897501985   -1.10847484673859
O           1.27060521123644    1.28322528466024    0.73437327696096
O          -0.57147272634670    2.80424917308447    0.98056335987547
O           1.27239259826202    3.38849864726703   -0.49430595696686
H           1.53057123675817    3.83938730596511    0.30324473781275
H          -1.02493450835939    1.44565453733488    1.75371529902894
O          -1.32618198674553   -1.93044808020196   -0.69768287021343
H          -1.97067803854288   -2.63413302719272   -0.61864452934068
O           2.59835288295288   -2.06205001626231   -0.76014523518356
H           2.72042991576317   -2.87638074950953   -1.24981753086359
O          -1.39314952689697    0.60494655817301    2.11593410456731
H          -1.92064569942393    0.86574889788098    2.87346290059759
O           0.81173419288605   -0.65760599122101   -2.12858720543780
H           0.02824790099812   -1.19484209441438   -1.95498790908513
H           0.55939367932704    0.24275235773949   -1.84806479556427
H           2.10087350285988   -1.45368257403305   -1.36050339508249
O          -2.48825834495810    0.34691607857601   -0.38222945710134
H          -1.81599110405621    0.92801465342276   -0.78935912640103
H          -1.84646361248205   -1.06913933306431   -0.65987125363702
H          -2.32998451831673    0.43415702393345    0.57523426182277
N           0.72712381952371   -1.24247278749332    0.95226572738026
H           1.54942726076534   -1.70017030426475    0.49621334236300
H           0.89632235899464   -0.18683750804135    0.86935362162676
H          -0.12660886474946   -1.50420865528385    0.41232876733044
H           0.62627895950886   -1.48049707560889    1.93248790517942
