    26
        -50.46710406  Gyration_radius:  2.43632372891 Dipole_moment: 5.126
 S          -0.80601948197381    1.62441340626662   -0.54222058061131
O          -0.13764739758570    0.50554212664897   -1.17462663664890
O          -1.13648033157672    1.31720850226564    0.85616126593552
O          -1.87571721379448    2.22391563131894   -1.27659927823945
O           0.35012904409932    2.74840072450319   -0.43314689885807
H          -0.12486230686103    3.55545007158856   -0.60514594739562
H          -3.30378532988360    0.59310848560362   -0.95532803035244
O           2.58724907119071    1.16213849729011    0.48779514843950
H           2.01655694421930    1.83330788971587    0.09243424890169
O           0.54144901179006   -2.54231408245168    0.53322434014817
H           0.39521231583319   -3.43287753810177    0.85350682276749
O          -3.18290448552371   -0.04033738439714   -0.24070836006688
H          -2.60381848902955    0.42191651567530    0.38304982803400
O           2.19848983735016   -0.85414476885988   -1.19181387224816
H           2.69738305583525    0.46664331355484   -0.20396968080583
H           1.90596348429473   -1.64493615602669   -0.72303842299313
H           1.37971616070543   -0.38416937278348   -1.42423738010191
O          -1.35894236339389   -1.86625108110097   -1.10907854557410
H          -0.90107936635089   -1.05255534143495   -1.38867963091503
H          -0.20968580465965   -2.34795157611229   -0.10147053851330
H          -2.19821751022695   -1.52812621814471   -0.74868283996726
N           0.75652828368133   -0.16886555200634    1.80999303877891
H          -0.08137229418780    0.40342020262692    1.48176020392264
H           0.69341178957081   -1.12743974092119    1.39795794352941
H           1.60325957946809    0.34029329642738    1.40016116515579
H           0.79518377779453   -0.20578989491243    2.82270264029484
