    26
        -50.46306693  Gyration_radius:  2.54510520118 Dipole_moment: 3.918
 S           0.99441631343584    1.48332481550255    1.36875118736195
O          -0.22334022704386    1.50381310235067    0.58232964410004
O           2.15820163739482    1.12925467723317    0.55671397107737
O           0.89799504710113    0.65302010983972    2.55237658843327
O           1.22620232292382    2.96501080492416    1.86960329280175
H           1.89467882474417    2.83626539214513    2.53419862250913
H           0.49778684941721   -0.96640394926690    2.37424706263876
O           0.30723822903073   -1.83978017961663    1.95977085807270
H          -0.55649031115300   -1.72884549028142    1.53528542230078
O          -0.02605394989441   -1.35073306780374   -1.86937169218294
H          -0.48991637886365   -1.94188967758038   -2.46336680566890
O          -3.16326277457188    0.49073192401226   -1.53744950581407
H          -3.70948038964863    1.21374864477974   -1.22703817352505
O          -0.71067410300263    1.44367057929584   -2.08766043791537
H          -0.48079572237930    1.65812387596148   -1.16543126668191
H          -0.23952864062053    0.62379834324635   -2.28308072161937
H          -2.33520168908642    0.90617882858423   -1.87668986542233
O          -1.53952426006173   -0.75480512125064    0.19474407636085
H          -1.09763427875184    0.08539793195545    0.44993663052345
H          -2.32773199977560   -0.45927770305625   -0.30928639510074
H          -0.64819765467663   -1.17443561333526   -1.10773549405980
N           1.93831877752542   -1.37687392623487   -0.02518139574982
H           1.36555075022365   -1.45594980889002   -0.88794518938561
H           2.11786896765493   -0.33685779691947    0.16654605419975
H           1.33977460855459   -1.71786640427425    0.80004997185140
H           2.80980004146810   -1.88862027132511   -0.10431643910484
