    26
        -50.46166158  Gyration_radius:  2.51005927098 Dipole_moment: 6.113
 S          -0.48398103937258    1.68107533969689    1.39578179725233
O           0.44743425514965    1.88886729641543    0.30751960833949
O          -0.46771067333911    0.29933230181376    1.86656004900113
O          -1.83432313429213    2.12658651089626    1.11689473591449
O           0.04213088013904    2.56904823500650    2.59863294226668
H          -0.68266687372469    2.53529342618698    3.21489015089345
H          -2.33116942805012    0.83413466938120    0.26148483727090
O           2.25825853226739   -2.34365484994873    0.99979071654363
H           2.95537310165352   -2.85894829573317    0.59199484208522
O           0.59223447426288   -0.83086520733719   -2.22053401579140
H           0.45145657110108   -1.21522719518380   -3.08615934120456
O          -2.57239269238920    0.11526615538324   -0.36993228460708
H          -3.51783475075599    0.20466488988022   -0.50511243812689
O          -0.76007911225837    1.35202241308071   -2.01238180481600
H           0.11998100502050    0.05841264749119   -2.22912066789968
H          -1.55714689304725    0.96403369044208   -1.60810464035973
H          -0.28719783266955    1.76286164049923   -1.26203737521724
O           2.36532581951149    0.04932367213298   -0.14179979302820
H           2.04228286665865   -0.18529004544202   -1.02109942621354
H           1.77925353175891    0.77335838969537    0.15022087503743
H           2.42214446933681   -1.40473869218529    0.73647983551447
N          -0.21131269068093   -1.69714266080708    0.23211142877470
H          -0.34880814294228   -0.84528447241711    0.86867547839925
H          -0.01112973279442   -1.37843644227895   -0.74117799361585
H           0.63905076498513   -2.18780466473224    0.59185260510926
H          -1.04917327552430   -2.26688876195595    0.26456989848168
