    26
        -50.46163529  Gyration_radius:  2.55606439041 Dipole_moment: 2.207
 S           1.95890802382227    1.17932534532243   -0.43546248486696
O           0.90708338826511    1.36342683469612   -1.40809533772241
O           2.11951370792702   -0.23757491108689   -0.11314759208583
O           1.84371156659096    2.00147754880153    0.75452402625509
O           3.31349418173514    1.63896368234636   -1.13235542599119
H           3.85109368424567    1.88016943352617   -0.38479290594457
H           0.52967818763204    1.53309736397487    1.54015308671900
O          -0.33302195387510    1.29841497808148    1.96864271039612
H          -0.31446878665848    1.70124974069474    2.83839488007286
O          -0.04443208898654   -3.11867060611038    0.82421688577297
H           0.76999122213278   -2.99080885838386    1.31526281727229
O          -2.18715015943902   -0.28604260160700   -1.12613516819751
H          -2.82692366189844   -0.22767281313968   -1.83613569880014
O          -1.44223144670584    2.08666332649225   -0.43981636697543
H          -1.24438439117658    1.99023205509248    0.50568721842735
H          -0.57028223353372    2.01086582521476   -0.88186792954381
H          -1.96325409037212    0.66438176635660   -0.87627312951868
O          -1.61639946730107   -1.11208308770374    1.51529604653938
H          -2.05706676211603   -0.90024671372574    0.68102166124558
H          -0.69511299042566   -2.47926874510641    1.21149303461457
H          -1.12457745283729   -0.30848821603075    1.75668738762821
N           0.21888283177148   -1.54417437909362   -1.28384982711557
H          -0.66778121216984   -0.99210297950970   -1.32476388978347
H           1.00612544549147   -0.93798160904242   -0.88518695202881
H           0.09570463222533   -2.32668031278585   -0.58010733845267
H           0.47289979564330   -1.88647206727553   -2.20338971792871
