    26
        -50.46166173  Gyration_radius:  2.5102934918 Dipole_moment: 6.124
 S          -0.58142260716197    1.96808240411729    0.89417800335619
O          -1.58659106475967    0.95310262046886    0.66058828745240
O           0.51252043184002    1.87921562464086   -0.06844974177129
O          -0.08362179677881    2.01117248951905    2.25431474027626
O          -1.29384055188690    3.35958827893920    0.63289546646795
H          -0.65439254303125    3.98436152899173    0.95975882035783
H           0.98128313279342    0.78479147640191    2.14961505810564
O           1.51522324265657   -0.04422733847501    2.11418560119785
H           2.03962782357576   -0.04139900421072    2.91737920978956
O          -0.28440123912228   -2.41650136979881   -0.21817176434692
H          -0.10521980289926   -3.34327710551105   -0.05756575944815
O           0.43547923436599   -0.18777442280653   -3.37153575747092
H           0.26082604527578   -0.82972112330032   -4.06090123923084
O          -1.61726947033867   -0.34912766572809   -1.69887576783564
H          -0.40878679775396   -0.09356519670486   -2.86520840136120
H          -1.43324433633019   -1.21460302701842   -1.31205936443087
H          -1.68995566640746    0.25193667351593   -0.93304924194274
O          -0.93493155234926   -1.26664991718899    1.99343375712837
H          -1.37051022733344   -0.46718797703120    1.63759813578252
H          -0.62164684911524   -2.04184502408491    0.65354733403549
H          -0.04257542019316   -0.96234094996709    2.23910528843003
N           1.41592341445153   -0.40376430071689   -0.90214400544331
H           1.29166856543493   -0.34181307328070   -1.93862605245759
H           1.03535894431518    0.51709649757637   -0.50604918627773
H           0.83680381754171   -1.19988692103084   -0.55585566030803
H           2.38369527323892   -0.50566315732306   -0.61810775003298
