    26
        -50.46305560  Gyration_radius:  2.55465358376 Dipole_moment: 5.317
 S          -0.81012143148220    0.21332927990365    0.81878465963828
O          -0.48827500780807    0.92870961893999   -0.41122895592390
O          -1.23111089133514   -1.16046648177022    0.52675491700793
O           0.29004106272906    0.24497470880571    1.77078306907426
O          -2.03874679979120    0.90687666081222    1.46361168829466
O           2.31807292254523   -1.67318010496211   -1.38465331428924
H           3.21162687293347   -1.34980280132670   -1.26068038663638
O           0.97436237693292    2.70544152534426    2.47358694290271
H           0.83763191455733    1.76649352868363    2.22205636056179
H           0.92090264606436    2.73311570664945    3.43035296804831
O          -1.11395042179224    3.22464011316294    0.86990102158241
H          -0.34587676430636    3.28949227624776    1.47635198310647
H          -0.77846789545231    2.75718726023920    0.09041279969915
H          -1.83991418149455    1.88020580196989    1.34102436020521
O           0.51008940617079   -0.14840572083082   -2.58735466779255
H           0.25159758240814    0.44363769292587   -1.84572746699161
H           1.27947013259055   -0.66458490239837   -2.24736970374601
H          -0.58575476315965   -1.07360009895379   -2.38036655879290
O           1.34282191870935   -2.07217690709333    1.05977727072703
H           0.48804465204850   -2.51069641594565    1.02369498870671
H           1.97492141572419   -1.86453217150289   -0.47859372357124
H           1.12718399078869   -1.18826075718020    1.41957282037596
N          -1.40102885652751   -1.71910452927184   -1.97526229782595
H          -1.20240871343669   -2.70180675681734   -2.13262876086581
H          -2.30040140237795   -1.46610235995022   -2.37015374074986
H          -1.39070975526440   -1.50138417568251   -0.91264625274068
