    26
        -50.46305536  Gyration_radius:  2.55539302392 Dipole_moment: 5.332
 S          -0.86932974408693    0.25098055601283    0.74509010998679
O          -1.46371235186880    1.02056514065434   -0.33756697236056
O          -1.51346642544614    0.70382715116346    2.08170812837880
O          -1.16891822962630   -1.17863740261043    0.61815698133382
O           0.56922421486268    0.47176673310917    0.84579778896868
O           1.25792217258229   -1.24413385550829   -2.64174335979951
H           1.47258684324000   -0.63364185621133   -3.34851825026379
O          -1.10950154256292    3.63129986332383   -0.06098110142587
H          -1.23036901980043    2.68252264035558   -0.28179758044071
H          -1.98421054778442    4.02258726706635   -0.08990929659966
O          -1.33487440748896   -0.90242848081615   -2.14559515671182
H          -1.66128981303362   -1.57090903605899   -1.53668026092058
H          -1.41767410973963   -0.07249326934848   -1.63406780620969
H           0.28674338424833   -1.14743535372293   -2.49074340170223
O           2.42854658234671   -1.00622113093382   -0.27244501555412
H           1.89028971799573   -0.28404281695015    0.12276949767606
H           1.66116642906413   -2.06983232040465    0.34367167451492
H           2.13244082424697   -1.06171315559304   -1.21216653414025
O           0.03215588213247    2.74741310208514    2.20137119278808
H          -0.31597986174426    3.29813267895545    1.46833278826456
H          -1.02466836871978    1.55122216842440    2.29360822999854
H           0.66274118914164    2.14283981880281    1.78231713600754
N           0.87630530973687   -2.72373462192515    0.79299501347370
H           0.73536913626695   -3.56074697707192    0.23674986174341
H          -0.01362763206407   -2.10404202574250    0.76726516131417
H           1.10213037809381   -2.96314480708535    1.75238120166880
