    26
        -50.46305569  Gyration_radius:  2.55450030749 Dipole_moment: 5.315
 S          -0.44527376533009   -0.68854325210055    0.83704580246429
O           0.96433513865415   -0.95852801184203    1.13688299404136
O          -1.24260436383892   -1.87862933135779    1.43215199502208
O          -0.90240944645993    0.53753001883403    1.47387835074769
O          -0.67449874165952   -0.67352285712831   -0.60362253317760
O           1.90168980081471    2.26959699156509   -1.14608320365209
H           1.49397195449099    3.11804705510212   -1.32558158336908
O          -3.48864442996642    0.98399111357328    1.11418949018455
H          -3.86506723588919    1.08526002962422    1.99003016971738
H          -2.51644141170955    0.93787613158210    1.24147416643228
O           1.06036213813328    0.09761370802264   -2.41675550034818
H           1.35894546070425    0.97576920340078   -2.07973631441635
H           1.91691760660824   -0.81130778584228   -1.68207264825032
H           0.25512354904511   -0.11655501628808   -1.89411479519405
O          -3.23334319554151   -1.39053214699590   -0.11011823095191
H          -2.53466367376065   -1.12628857648168   -0.72717328271282
H          -2.11255156592992   -1.83783677234340    0.93883131033962
H          -3.57041954593429   -0.54966312115430    0.26568555314430
O           1.43559153739573    1.76806001879684    1.42601814554328
H           1.91379011783205    0.98734471303891    1.71934130620392
H           1.76803693022867    2.10745482503131   -0.18107124999413
H           0.49826155562748    1.49418202147873    1.48805373003174
N           2.42144051075050   -1.45263488405615   -0.92071644875405
H           2.39656765704718   -2.43040387774646   -1.18930291070565
H           1.82498323040613   -1.30053394488791   -0.02755689604053
H           3.37590017832278   -1.14774627182892   -0.75967744627619
