    26
        -50.46305571  Gyration_radius:  2.55459268472 Dipole_moment: 5.319
 S           1.06502027269133    0.46309129493793   -0.16102379780246
O           0.52926656044777   -0.84301801756186   -0.52893451860893
O           1.02374597267447    0.65196558345485    1.29234625725697
O           2.56613746105017    0.48738676995234   -0.55115735619394
O           0.38897737556953    1.54534551225870   -0.86064660157831
O          -2.97603459889633   -0.05257347350125    1.10745247858354
H          -3.67099376477133    0.13083143241318    0.47364888838544
O           0.58665555923535    1.35089059188341   -3.49507116483165
H           0.40349208184541    1.46785463775408   -2.53783148879374
H           0.96265652708369    2.18013023146821   -3.79519401403899
O          -1.36184098349276    2.06306646860456    1.04953762445270
H          -2.40463724779934    0.75285927855969    1.11821605876953
H          -0.69984341814013    2.01432565322874    1.74495328681264
H          -0.83326173315816    1.98572991559771    0.22976799703341
O           2.07589377362277   -0.75130416940262   -2.74318526946098
H           2.57544837490053    0.03723070071376   -1.44511846955469
H           1.39723248229897   -1.18503803619207   -2.20466883543092
H           1.59478649415951   -0.06450462157083   -3.25187449577650
O          -1.36703788647929   -2.13162107309370    0.74962846813409
H          -0.52148659747823   -1.82545825307058    1.88546867090300
H          -2.07786640471155   -1.45253208204447    0.83654526450981
H          -0.74108761550098   -1.76320135871262    0.08637701067020
N           0.20194929803289   -1.39106371466746    2.61605338538578
H           0.94851360955740   -2.04460542411080    2.82663874857513
H          -0.26839107730029   -1.09605504031593    3.46554524300382
H           0.60270546464281   -0.52973283667025    2.09252661960342
