    26
        -50.46305581  Gyration_radius:  2.55462692742 Dipole_moment: 5.319
 S           0.14842115479562    1.14089378801177   -0.22368546854738
O          -0.34665412588863    0.06140536168669   -1.07092165309507
O          -0.71083603916718    1.31631047964142    0.95130184894402
O           1.53907495749220    0.94114441793416    0.15565097599059
O           0.04330666067272    2.46244488682520   -1.02912000977208
O          -0.02330479646100   -2.59316548603667    1.83213499508600
H           0.71742991897640   -3.19218162702642    1.72870345811951
O           3.16766481244744    0.79661552006608   -1.92858979496768
H           3.83989199575012    1.46537592159112   -1.78758241608008
H           2.63614256757664    0.76939825731683   -1.10381581552387
O           0.83815964750944    1.28902979752945   -3.16727767900612
H           0.34946476206342    0.54091252339898   -2.79287626660653
H           0.35085229489349    2.19581606946032   -1.94347698564083
H           1.77839169205815    1.10931280553829   -2.95419451409090
O           1.03305575107901   -0.23405060119182    2.46750359896979
H           0.35073953758119    0.40067680250542    2.70352572372024
H           0.36740828528813   -1.73097209214443    2.11364196639550
H           1.40609214710051    0.13335659690373    1.64093934524110
O          -1.60992863645681   -2.08112183318691   -0.23152257402718
H          -1.06649842296017   -1.41994852586507   -0.71626792397053
H          -1.02372329969139   -2.41694113073102    0.48794233077905
H          -2.40132272725986   -1.08805719231595    0.46582297098093
N          -2.79544399567834   -0.18498640063598    0.99013580336293
H          -3.05733301760868   -0.40185979874290    1.94630278002069
H          -3.57673396821995    0.22072057961650    0.48637958657597
H          -1.95431717591450    0.49987086985711    0.97934569714021
