    26
        -50.46305573  Gyration_radius:  2.55453356669 Dipole_moment: 5.320
 S           0.89913575840635    0.68395864641259   -0.31365040210134
O           0.12853320326721   -0.28655610112758   -1.08343609919503
O           1.63743835635123    0.05536245641359    0.77151812739049
O           1.91466190529968    1.35409586117943   -1.27585727320998
O           0.03602317249199    1.76329191368674    0.17593306037171
O          -2.23372347859100   -1.08512749800056    1.97846641509143
H          -2.06154628134859   -1.93008914858646    2.39641849678913
O           3.34431949361240   -1.78507516341613   -0.07482902642578
H           4.20035223048045   -1.53584865901174    0.27757064037372
H           2.69494312704578   -1.17327692380056    0.33449900749824
O          -0.18538934809540    0.48221996509078    2.63611123712773
H          -1.49670930244943   -0.49182789346185    2.26160266445825
H           0.56884513278354    0.19951129802072    2.08053645093414
H          -0.33835269661255    1.38918887225813    2.35646719589689
O           2.39805328442382   -0.88967611839070   -2.42137735836210
H           2.24752270493015    0.58634918179576   -1.82501591182302
H           2.88204778860298   -1.36908214602790   -1.71589599137179
H           1.46091314740595   -1.04882442395765   -2.23387082834043
O          -2.38515481995309   -0.91629973279381   -0.66505584197673
H          -2.53326250855240    0.52465606891351   -0.68426110245926
H          -1.43015027953957   -0.89862909973507   -0.89998318454133
H          -2.40791625262053   -1.11000244780104    0.30232928093737
N          -2.40337185482168    1.63138332090904   -0.62013821922296
H          -3.02424621390058    2.03318434159239    0.07480024517857
H          -2.54233206371973    2.07079876615762   -1.52366963374941
H          -1.37063420476523    1.74631465362509   -0.30921192938715
