    26
        -50.46305569  Gyration_radius:  2.55454961309 Dipole_moment: 5.319
 S           1.13202127449157    0.09512807501379    0.28696993361989
O           2.38827261494876    0.71465891823510    0.95354104522615
O           1.06446853696729   -1.31271278083355    0.64920012317025
O          -0.03366570072055    0.83605397492363    0.75653194330098
O           1.31402881782143    0.27199836175725   -1.15710053270898
O          -2.46230341513028   -1.14425330878616   -1.64593375508941
H          -3.00951765661156   -1.79353727550714   -1.20181475116685
O           0.91419163386369   -1.69681814559286    3.26579556939189
H           0.89830765973101   -1.65034635197458    2.28542582837116
H           1.64032115623282   -2.28089929286210    3.49076200550117
O          -2.21148390798269    1.29613902841204   -0.63527735375741
H          -1.24060420480882    1.73350610105252   -1.61792981340212
H          -2.45297095689666    0.40075732716033   -0.97278872015455
H          -1.54209257922508    1.13276285720104    0.06663447552304
O           0.00667442030137   -2.13854506755395   -1.62714218422641
H           0.60040996522965   -1.60274201649947   -2.16063442402513
H           0.34729007116478   -2.01468082850066   -0.71827270451173
H          -1.55625702241301   -1.53583672724519   -1.67891369418048
O           1.14771426864549    0.97543774086307    3.18346479627465
H           1.05446331030123    0.04075147263970    3.46551270150873
H           2.08878869646302    0.87692989164885    1.89475358056384
H           0.38903165317573    1.13836101222327    2.60331637077022
N          -0.33965275437479    1.90385473827141   -2.25416881508337
H           0.40657416422605    1.25081375314779   -1.81452135388338
H          -0.02871844762832    2.86781031993781   -2.20044982579787
H          -0.51529160783335    1.63540823283191   -3.21696044523493
