    26
        -50.46305565  Gyration_radius:  2.55474569534 Dipole_moment: 5.323
 S           0.34186421340092    0.61019247326224    0.94077540731041
O           0.77446926583977    0.68612416424272   -0.45039422236628
O           0.66664055195855   -0.67435059365057    1.54261997398608
O           1.08070297563494    1.72342474474649    1.72899397400898
O          -1.08751133605667    0.91472385640001    1.05872522195068
O          -1.78785964410698   -2.10077225162216   -1.57086360495271
H          -1.38791762878605   -2.95157833806340   -1.75663479302306
O           3.26214969313970   -1.20366092532945    1.51682605780131
H           3.50609353828188   -1.38274384384663    2.42647187227329
H           2.28370868656564   -1.12560698456959    1.50960230614129
O           3.25691446356054    1.26011719678306    0.45230454594697
H           2.01118073873277    1.68044220746699    1.36284207095547
H           3.51077461383012    0.38186473672919    0.80743791175306
H           2.64634424172218    1.06868278537138   -0.27519667763039
O          -1.67493395301922   -1.80502529225113    1.07193370694413
H          -0.74866083979921   -1.57324224264916    1.28573103066282
H          -2.16792552261628   -1.02974752502329    1.35493872667486
H          -1.78646111480790   -2.01379550678323   -0.58707800813897
O          -0.70526259135837    0.11815098305532   -2.54325578001893
H          -1.07567131344355   -0.76864248464212   -2.31916525995197
H          -1.63099290486605    1.00610403260007   -1.86893252752743
H           0.02285008206656    0.26154276589547   -1.89769950836802
N          -2.22080123480650    1.61057190668267   -1.13956541604539
H          -3.19659424737502    1.33181762933402   -1.13791051145622
H          -2.13050122453648    2.60332406604275   -1.32680956463906
H          -1.76259950916752    1.37208244979567   -0.18569692228836
