    26
        -50.46305562  Gyration_radius:  2.55501476595 Dipole_moment: 5.326
 S           0.68253175360106    0.65242195072816   -0.69566652413024
O          -0.69439782839720    0.20015254094198   -0.86251428864191
O           0.82571835737826    1.55436834731402    0.43734492922363
O           1.59674225721700   -0.48940728755297   -0.59462169568553
O           1.09169095612554    1.41286961236667   -1.98437330599068
O          -0.63657409021230   -1.79662191091709    2.54264048455363
H          -1.12762684445662   -1.37896921115888    3.25164664688542
O          -0.67157224503014    3.72854780949240    0.21861178010487
H          -0.13825911438332    2.92888554963629    0.41776791064514
H          -0.07308901522803    4.47274329250909    0.30249600948216
O          -1.21106163423178    2.53430767336884   -2.12346996126614
H           0.27733333647231    1.95495478889023   -2.19621307277839
H          -1.50985073022658    1.68955579234875   -1.75491442139218
H          -1.17629963606582    3.14633976958561   -1.35795725704627
O           1.53485053068662   -0.30032667655664    2.18074861585731
H           0.19035682772890   -1.26623161988990    2.44154377324384
H           2.14699223252919   -0.71874582445223    1.56886189905354
H           1.24566736047110    0.49989222932416    1.69768594467998
O          -1.71008201260873   -2.00984969062551    0.12557907017941
H          -1.45104667319310   -1.96738631999293    1.07686680479072
H          -1.54800675153768   -1.10491876081686   -0.22404742352416
H          -0.52396918537849   -2.57988526610694   -0.48068253038788
N           0.48599778772279   -2.78475565443916   -0.90917726829251
H           0.97585990156148   -3.49104641902224   -0.36965177045598
H           0.99471787414247   -1.83054335394224   -0.82409133217886
H           0.42337659547048   -3.05635138111885   -1.88441300698491
