    26
        -50.46305553  Gyration_radius:  2.55450220021 Dipole_moment: 5.315
 S          -0.88423751889464   -0.15797845495456    0.75129124692848
O          -1.57527048714209   -0.29985054478391    2.13278265028987
O           0.50579563688628    0.21821018063160    0.98442870184017
O          -0.96725266676873   -1.47977921848636    0.12226142240993
O          -1.59843087582761    0.84781946207378   -0.02065377864933
O           1.38453871116554   -0.03183520185034   -2.85811253848625
H           1.48921478888307    0.81590672548874   -3.29240739561878
O          -1.63541321545271    3.21881980402268    1.15994040845833
H          -2.55903349576572    3.46535136571074    1.23183208929353
H          -1.61537723774777    2.40028762079958    0.61852229452152
O          -1.22097298127419   -0.28631403497340   -2.37744958918827
H           0.41275621954926   -0.14491451863769   -2.72303925276610
H          -1.42778886931859   -1.16523394913947   -2.04726066274768
H          -1.41788532884547    0.29278871613180   -1.61379131979402
O          -0.35316098531349    1.77281926352485    3.02200799808304
H          -1.21752109488270    0.48084790943432    2.64682925278436
H           0.35724462296005    1.45062622108852    2.44736985410438
H          -0.78670036949941    2.48900042264980    2.51111722228613
O           2.54582900897844   -0.47742711672341   -0.51444456875273
H           2.24463742025958   -0.24154915988195   -1.42414011291083
H           1.91233952927735   -0.02836738561982    0.08922737524652
H           1.95995200840981   -1.79061296636811   -0.33570724556066
N           1.29158116968854   -2.66877064520898   -0.16938390301200
H           0.31728362734893   -2.21825564777837   -0.01335547287310
H           1.56709747829670   -3.18876657729647    0.65673599415546
H           1.27077488499982   -3.27282226983673   -0.98460067013363
