    26
        -50.46305549  Gyration_radius:  2.55496627831 Dipole_moment: 5.325
 S           0.06005227243568    0.97408104710614    0.64730133454170
O          -0.47669461949335    2.20546601608182    1.42323660762414
O          -1.06679931097824    0.35531496310358   -0.04236554707658
O           1.08567852306251    1.42497248293193   -0.28132086406728
O           0.61062986986518    0.06890885579512    1.66087307806918
O           1.14047838678261   -2.66943487698377   -1.29202525473450
H           1.36405712821092   -2.63625630149233   -2.22327244454508
O           0.18631650140964    3.20410402975852   -2.02582394641611
H           0.75756032237016    3.96953587742986   -1.94326825948148
H           0.58973014032723    2.50432149821155   -1.46806871432516
O          -1.35222160575650   -2.21282412112756   -0.50576056271630
H          -0.48886025096347   -2.46208403795168   -0.91357217084533
H          -1.04683709820205   -2.28981923542558    0.90866590360915
H          -1.37045659214222   -1.22965976881272   -0.52697610581527
O           2.57534221726768   -0.75243079552148   -0.12962802366761
H           1.70772080614735   -1.98833404259631   -0.85650073446915
H           2.13727017051445    0.09510435085540   -0.34651959606524
H           2.50249994845751   -0.80037192338002    0.82778019181120
O          -2.01271949275202    2.83950092368182   -0.53097499745890
H          -1.11656791311726    2.62069603577509    0.77523682107836
H          -1.36212859156532    3.13468460888705   -1.20278284311426
H          -2.06698762049695    1.87841650153464   -0.64084813735015
N          -0.68662208279142   -2.12947427794665    1.95266921170260
H          -0.06039907563014   -2.87377630169244    2.24209593872259
H          -1.46264240613055   -2.04040252173522    2.59970428143826
H          -0.14739964681318   -1.19023898643780    1.89214481346763
