    26
        -50.46797323  Gyration_radius:  2.47276610485 Dipole_moment: 6.430
 S           0.07557326524033    0.28829525299589    1.09359833118630
O          -0.00333910036346    0.46940847878493    2.62432467217780
O          -0.78805489899666    1.26431989000876    0.45588507137948
O           1.48282088322628    0.49295784550599    0.72500526523016
O          -0.31606903671406   -1.08392865725767    0.77037247950985
O          -0.02140371253615   -1.73103972987049   -1.77499051760253
H           1.38352431264518   -1.40191199608427   -1.59103887863185
H          -0.28071783565148   -1.69792928416738   -0.82828972442648
O          -2.76229783751329   -1.46840496413338    1.71052041883461
H          -1.87558515170219   -1.39132597041485    1.29748550088506
H          -2.71954387879426   -2.22384477470070    2.29892533754035
O           1.95413278224449    1.84772425490791   -1.53032469437736
H           1.94223584480590    2.80408653562544   -1.47184313990791
H           1.75703249541589    1.51791202456413   -0.62803394511446
O          -0.55403554138620    0.80793764882586   -2.16979235097152
H           0.30414373250271    1.24919602089515   -2.26268010621831
H          -0.36743986399836   -0.87337206184139   -2.13245042581617
H          -0.83041638711007    1.01510628301723   -1.25574111117899
O          -2.48406952770590    1.06962381759271    2.52790939503506
H          -0.96293230926716    0.72839954575387    2.77259098312193
H          -2.26143918254457    1.45559119541034    1.66697604505591
H          -2.84408492723330    0.18119834527062    2.32353059954796
N           2.35174932282451   -0.96217012627013   -1.25608101336003
H           2.09964609727141   -0.49082456910289   -0.33611724558548
H           2.63505407513848   -0.21509471420744   -1.89039577734856
H           3.08551637020268   -1.65191030111754   -1.13934514896348
