    26
        -50.46305566  Gyration_radius:  2.55466271512 Dipole_moment: 5.324
 S          -1.03152827854423   -0.03841301878915    0.55407570852589
O          -0.08608639707933    1.05855293610143    0.37777568314540
O          -2.27148496847338    0.51926558896615    1.30109977109578
O          -1.52349885437251   -0.51488352175512   -0.74233819450920
O          -0.46633351901240   -1.12266758989454    1.34317086313594
O           2.34460779330239   -1.16720514429016   -1.79503621387913
H           3.13915235107499   -1.44281826333844   -1.33564497845361
O           0.27698121599060   -0.35441944698326    3.76682207782066
H           0.09604451649614   -0.71338558634489    2.87127480782476
H          -0.17893854638266   -0.93310436042401    4.38024174238600
O           0.35594645215986   -2.56615532873171   -0.71198302448424
H           1.61563969984615   -1.72058113373722   -1.42382854021599
H           0.16797394775411   -2.15452711206963    0.15554180305540
H          -0.46265483070136   -2.43810152833723   -1.19958393542372
O          -0.78118865725674    1.93084185252065    2.83924636231453
H          -1.86768403514884    1.11401154898291    1.99767913919536
H          -0.35321958978380    1.23832149741681    3.38617854384927
H          -0.23137446182106    1.99649396448902    2.04418980037624
O           1.54249321549009    1.35816739464786   -1.65918548957741
H           1.09931878978856    1.35963893804824   -0.78108217234744
H           1.98262711633022    0.47710111055549   -1.72287684442342
H           0.31953890118111    1.13429438585036   -2.40308001637360
N          -0.69113646630607    0.83089734610992   -2.76659895153549
H          -1.10286160488595    0.27472498008138   -1.93134115615610
H          -0.62190566900926    0.23342345006053   -3.58398319510615
H          -1.27042810068055    1.64052704087471   -2.96073358024134
