    26
        -50.46305553  Gyration_radius:  2.55490021966 Dipole_moment: 5.329
 S          -0.43590330014590    0.65112515841659   -0.87118851543661
O          -1.52730776358437    1.38181834188891   -1.69659583566116
O          -1.05969993122542    0.15043279874381    0.34889275049621
O           0.02904555315926   -0.45718250422857   -1.71089229420237
O           0.63598247721475    1.59347101986886   -0.58696886308671
O           2.22657696770541   -1.73481320405264    1.45751798623855
H           2.69963374260579   -1.31254080131004    2.17589988890226
O          -0.18675647349756    3.70962293882583    0.77773204467845
H           0.07349624864520    4.47525400155961    0.26286235038790
H           0.22061598371979    2.93444163664831    0.33425387959550
O          -2.51682494828188    2.42488467234012    0.42749641540699
H          -1.81451657351848    3.06193048244060    0.67807088783226
H          -2.03522204935480    1.89090649489327   -1.00023723296342
H          -2.24296697075521    1.58329448539796    0.82186685227662
O          -0.40262403929663   -2.05849946352512    1.60608810366452
H           0.57644510060748   -1.97786253024639    1.69977484081852
H          -0.70963944101413   -1.16042639678886    1.34806701347668
H          -0.52915959759911   -2.60939735016919    0.27168249099468
O           2.59455393957419   -0.17852354252306   -0.67036351762347
H           2.00724439096863    0.59550474832302   -0.55520513669603
H           2.40254385549187   -1.18033688475720    0.65940125387716
H           2.25540257865759   -0.59701892452441   -1.46664082779734
N          -0.56597468629277   -2.79539964676641   -0.82800180663579
H           0.13899700009643   -3.46922812626697   -1.10879642298817
H          -0.34472888077539   -1.82333726362226   -1.25561717173385
H          -1.48921319310428   -3.09812013055498   -1.11909913384319
