    26
        -50.46305554  Gyration_radius:  2.55472117088 Dipole_moment: 5.320
 S           0.34922221694759    0.44159422124486   -1.02731484631249
O          -0.38454511718360    1.62931822032067   -0.57946677341402
O          -0.53695256400820   -0.53371148410340   -1.64472667457544
O           1.35396808529342    0.94074706251717   -2.09863889178803
O           1.11734176513470   -0.13677750736471    0.06987645003241
O          -2.12432231176160   -0.70324893212055    2.25432530866776
H          -2.41000951821024   -1.61646353676568    2.30623284316733
O           0.75603872484470   -2.62389026661602   -2.63285978678177
H           0.49881914064925   -2.68407143275538   -3.55441324135904
H           0.18882520329996   -1.92635422567837   -2.23891710280773
O           0.43282357773034   -0.08780675220164    2.60377393097591
H           0.25794690200257    1.32091506370047    2.31296208272759
H          -0.49801418594746   -0.41539391049564    2.58959397338265
H           0.79419206769509   -0.30503669220408    1.71517354220522
O          -2.67618883358435    0.09208110677815   -0.22511832586129
H          -2.37197706281518   -0.39679316247047    1.34872609121038
H          -2.53254398503931    1.03741828022918   -0.32484556651706
H          -1.99057976627543   -0.30162852959574   -0.80155521182168
O           2.82028328575718   -1.13885642219155   -1.77442228692100
H           2.25295110610942   -1.84054805155279   -2.15866523974718
H           2.03341706890124    0.20654541200230   -2.13175680025840
H           2.52532338299039   -1.05406209827791   -0.85546837650516
N           0.08030889365255    2.32115846053809    1.85092292126137
H          -0.73571535632817    2.77068009312261    2.25329512568413
H          -0.09814951263513    2.08839229708077    0.80667830310275
H           0.89753680276892    2.91579279688393    1.93660859223145
