    26
        -50.46305559  Gyration_radius:  2.55456275353 Dipole_moment: 5.318
 S          -0.90476705914170    0.23377982862241    0.70673317192830
O          -1.64108492273978    0.47532264805905    2.05049345876236
O          -1.19457517165729    1.34687671077920   -0.18478581391171
O           0.52126376629851    0.12124272562106    0.99319618489372
O          -1.43122091628813   -1.02949794559407    0.18075159443832
O           1.36618952705443   -0.78892231434307   -2.75614709562325
H           1.77690700042755   -0.07786643643111   -3.25014324089578
O          -0.42516168143639    3.68262309855185    0.79938980709914
H          -0.68000579688584    2.86085950119214    0.32679226628758
H          -1.20340159315643    4.24244391438407    0.79414435905748
O           0.20857102283831    2.06503759435011    2.84500534484314
H           0.07110492817311    2.83522155039046    2.25353869625292
H          -1.04519334503421    1.12709354073318    2.52167832003153
H           0.77557986468023    1.46154268854905    2.34202652043446
O           2.22695611406682   -1.38333847366772   -0.31769640196045
H           1.20966189534047   -2.38554795452750   -0.07260733284392
H           2.05532582659399   -1.14549237657361   -1.26002367474442
H           1.77538251903647   -0.68583597910341    0.20856847045286
O          -1.17312901575501   -0.06703460896964   -2.41705455460731
H           0.41399444038022   -0.54068381367390   -2.67182151820025
H          -1.68853904235898   -0.78211117909816   -2.03322949340377
H          -1.17489816430348    0.61388469524735   -1.71437945889264
N           0.26924031159656   -2.95476867957967    0.12029207049527
H          -0.48692284886107   -2.17948732731404    0.18133274062315
H           0.31830242127058   -3.45822397196540    0.99944800003839
H           0.06041992983587   -3.58711743563413   -0.64550244053423
