    26
        -50.44722213  Gyration_radius:  2.48008499609 Dipole_moment: 5.452
 S           1.41380477208894    1.22498815394013    0.73873238519518
O           1.61693700854828    1.85494029377786   -0.63792032344677
O          -0.01141596989825    1.12095979114442    0.99766299825978
O           1.96396032182664   -0.22621723392437    0.58415008981892
O           2.17136151608990    1.88533407850637    1.73482798646029
O          -1.41314284268011   -0.84618897427991   -1.67038584000882
H          -2.23625963948615   -1.10467351147532   -2.08623860368590
O          -1.75411690033112    2.95122302468775    0.10932345179910
H          -1.47939496602949    3.81600131701795    0.41772182436761
H          -1.22787069465339    2.29849027380273    0.60922626682538
O          -0.52694923765910    1.73336225028786   -1.93958222121417
H          -0.87488011928837    0.82112326130760   -1.90500530573656
H          -1.11067273344566    2.26562501283711   -1.35738932137064
H           0.75881906837968    1.78911069393035   -1.22278492043188
O          -1.52785117124841   -1.10627226625267    0.89084784438755
H          -1.53667776334639   -0.97147812491758   -0.67866392040720
H          -0.89001951177469   -1.76175581396008    1.24476170025918
H          -1.11945414735976   -0.24406684061939    1.08390717421738
O           1.22075965328297   -1.30600206934235   -1.63909879775864
H           1.34041013282952   -2.25605789192260   -1.58351913067082
H           0.26422688028456   -1.15019176329877   -1.77925285446183
H           1.69300836112299   -0.59090712205099   -0.30740242508629
N           0.57880169672444   -2.51335666546918    1.96164470808352
H           1.26670775708828   -1.81153919108207    1.70248627954969
H           0.97480792152987   -3.42506592346231    1.76850000921199
H           0.44510061740381   -2.44738475918317    2.96345095584401
