    26
        -50.44722212  Gyration_radius:  2.48008915143 Dipole_moment: 5.453
 S           1.57785659006582    0.24878386344213    1.22207099114871
O           0.45790465562115    1.11385053593531    0.89564861029177
O           1.02633577410674   -1.20692424348079    1.31882063109964
O           2.53275140000039    0.21285300538750    0.03037167930251
O           2.25450992150393    0.55035585633384    2.42762990180712
O          -1.05707748225003   -0.22493124531554   -2.08203513541413
H          -1.67517296589304   -0.02847370643283   -2.78674227598708
O           0.74483262401893    3.29230029545233   -0.63671635878134
H           0.52493186464559    2.62402868735383    0.04001806494759
H           1.42438850924521    3.85111858481613   -0.25675175812067
O          -2.04253562625335    0.35789012615856    0.22658579089594
H          -1.50919213419866    0.03096363189699   -1.21914387172869
H          -2.14614613914524   -0.42086116853652    0.81357289229978
H          -1.24030618557517    0.80144996481409    0.55390734971122
O           1.35527124982385    1.07431767711482   -2.01331217745834
H           0.49585809016901    0.61932114386043   -2.10708014161169
H           1.14551899952682    1.98633496194255   -1.71800852471651
H           2.06817391338396    0.52742525930151   -0.84600499406264
O           0.43026834482147   -2.16660810296106   -1.00167127810675
H           0.85160433567342   -1.55764182055674    0.39810639243137
H          -0.14021997559567   -2.92965139596706   -0.89020168039204
H          -0.08044230424531   -1.50511576609751   -1.51211352258077
N          -1.84905909703122   -1.67865624942315    2.06492598720852
H          -2.13347914898806   -2.65045552378295    2.05731201700829
H          -2.18310455588689   -1.27218035385042    2.93039157642493
H          -0.83347065754671   -1.64949401740637    2.09041983438426
