    26
        -50.44722213  Gyration_radius:  2.48009145095 Dipole_moment: 5.452
 S           1.17838631218632    1.06940249969941    1.22987379470649
O           2.32135645792461    1.01220173561623    0.21813473498951
O           1.49685830033005    1.89350753358661    2.33513596058072
O          -0.04842292241103    1.40392066837494    0.52828978021306
O           1.03718426265597   -0.39905270830570    1.73615411310332
O          -0.52577715979926   -1.11944721738949   -1.99333149939592
H          -1.02327112072452   -1.33473791953547   -2.78287658833478
O          -0.07174243353616    3.04448302038480   -1.58930222632960
H          -0.22937770666304    2.55629387188152   -0.75880382962038
H           0.34140884522032    3.87354456501170   -1.34351242283499
O          -2.06586759826730   -0.26704898971547   -0.11129079048950
H          -1.19070978358020   -0.79318891686237   -1.31076901222428
H          -2.06609869570586   -0.84293246117102    0.68249763628180
H          -1.49555929588261    0.48239217929576    0.13475954933112
O           1.37828156068780    0.84895789726257   -2.10332735670499
H           0.71137972689229    0.13563464965119   -2.13185884960475
H           0.87397771685599    1.68986261483276   -2.14242801399037
H           1.96991076797877    0.90543153391759   -0.75546996062669
O           1.19294561530342   -2.10259676466444   -0.19637438788100
H           1.14898616189925   -1.02796521158884    0.96595171005453
H           0.84192861360611   -2.94556878621493    0.09741902134503
H           0.63160197657618   -1.80839074607789   -0.94288543877733
N          -1.68859891698622   -1.54026329484829    2.29724262842838
H          -0.74504507301170   -1.18158108701679    2.41544444681410
H          -1.68980362786270   -2.51377680178506    2.57583122317322
H          -2.28393201368585   -1.03908184434128    2.94549577778965
