    26
        -50.44722216  Gyration_radius:  2.48009458229 Dipole_moment: 5.453
 S          -0.39736286274591    1.15617617713474    1.59722525533344
O          -1.82899336325953    0.62626476914348    1.65096360562841
O          -0.18517315982484    2.19073807261251    2.53892804793185
O           0.48219377603182   -0.06612410294860    2.00333994460922
O          -0.07294938088523    1.48270049370329    0.21980960281722
O          -0.53224224100158   -1.52690877004000   -1.69951841372765
H          -0.60921872870498   -1.86724795825790   -2.59143743053914
O          -1.90477929847518    2.44422633124331   -1.48185433286895
H          -2.30298804482181    3.22722204767666   -1.09876316879296
H          -1.11654175543935    2.24192056822707   -0.94272689781628
O          -2.57095175869970   -0.01891939436808   -0.65956252572572
H          -2.50101657728573    0.84993794588154   -1.11030780169328
H          -1.89155187190432   -0.58844031703250   -1.07003039646295
H          -2.15948198761062    0.31199776352605    0.71564600031790
O           1.48087392473575    0.06503682296747   -1.46757204262730
H           2.16189565720336   -0.25689415905671   -0.83963492116853
H           0.26845204375548   -0.91597511054926   -1.68965026070676
H           0.99590390752470    0.74594005755352   -0.96893901847593
O          -0.31086234581171   -2.24347247035589    0.86699977611510
H          -0.47526285035329   -2.07967073231603   -0.08430924405460
H           0.38859536790162   -2.89784390070351    0.91749589150901
H           0.11496879330623   -0.89497258594754    1.57974624630042
N           3.12965831125316   -0.52810200913152    0.65242000897414
H           3.61116237162576   -1.36996373642705    0.94354861217950
H           2.42159043531834   -0.31499247765616    1.34966186674725
H           3.80408161816592    0.22736665512409    0.66852155619485
