    26
        -50.44722208  Gyration_radius:  2.48006839371 Dipole_moment: 5.453
 S           1.74892377569478    0.85666394028585    0.50292104948251
O           1.54951927720657   -0.48701747004871    1.26928188207534
O           2.63014405428374    1.67111743269257    1.25271130566083
O           2.36025272068545    0.44218104130772   -0.83414981486234
O           0.43034093613765    1.41434998118886    0.25927514743093
O          -1.47729295901044   -1.12591557243997   -1.43272873486670
H          -2.27932483453169   -1.28236688831758   -1.93232355326994
O          -0.12982746573929    2.82671999373993   -1.94703305563565
H          -0.03085321721588    2.46277610347838   -1.04665547604541
H           0.49389099018621    3.55084804253993   -2.01806350431954
O          -1.94869200760796    0.22693646542922    0.70916856804800
H          -1.74070197418658   -0.59327870817712   -0.61946924860657
H          -1.73973446888382   -0.26260592311646    1.53283816061831
H          -1.19829363186658    0.83609727293548    0.59395431420145
O           0.55620003649791    0.31257263769653   -2.57600809157247
H           0.24512961602857    1.24323803602477   -2.56941167610946
H           1.63611714626112    0.34017589439694   -1.57439118686475
H          -0.18720858865737   -0.22013322943569   -2.23249532791271
O           0.59905135107925   -2.33586440196258   -0.26032355886473
H           0.24392413067035   -3.04242292412812    0.28245796773401
H          -0.14789355149382   -1.98022773912901   -0.78419748933880
H           1.22465788860053   -1.18744945489729    0.63276429540632
N          -0.88652341460220   -0.89048463661457    2.98673408572683
H           0.07465131667793   -0.75961549919204    2.68347340057793
H          -0.95859747099632   -1.80813400480259    3.40870539885713
H          -1.06785965521615   -0.20816038945315    3.71296516245020
