    26
        -50.44722212  Gyration_radius:  2.48008579383 Dipole_moment: 5.452
 S           1.54081140276735    1.24023460159311    0.36464202168098
O           0.44317762677131    1.30967417564553   -0.58377305200391
O           0.96786444153286    0.66233177426439    1.69517630928034
O           2.53320335967518    0.18099954298260   -0.11124139209638
O           2.18190997956326    2.46858802434495    0.65151119643219
O          -0.99239477694507   -1.98621797550206   -0.75700610265089
H          -1.58485366641210   -2.54244325879531   -1.26381009982038
O           0.80700915673712    0.92125530408872   -3.20914512947998
H           0.55691357773326    1.22208748210053   -2.31478448587407
H           1.48093458747527    1.52678966020975   -3.52151437197563
O          -2.04403178256530    0.31574445905451   -0.27163053803034
H          -2.17649436667714    0.48966448796372    0.68437724020595
H          -1.24711311499806    0.82532576398949   -0.50118105430846
H          -1.46883715270773   -1.11081968913592   -0.61159044006981
O           1.43314233948393   -1.28779443682762   -1.82527560730526
H           1.22576307171391   -0.62048580469957   -2.51424952187673
H           2.10113929692520   -0.47250234693381   -0.79609608239918
H           0.57136480383846   -1.59494275846565   -1.48260780810935
O           0.43429776823476   -1.85532785150403    1.50066982671014
H          -0.14907079627490   -2.11027850687044    2.21813383614759
H          -0.05130472632362   -2.02736303912358    0.66790318384246
H           0.81831321901442   -0.32174509817499    1.59264672028351
N          -1.93586237501419    1.05208832718957    2.37608037258088
H          -2.23233602507315    0.60385019323555    3.23429665008522
H          -2.29222460336574    2.00005401019796    2.39082080235521
H          -0.92132126510851    1.11123295917311    2.38764752639723
