    26
        -50.44722215  Gyration_radius:  2.48008649071 Dipole_moment: 5.453
 S           1.70078171797190    0.68041664740193    0.83029312372773
O           1.13037851483830   -0.52255569347516    1.64274745655037
O           2.52652835485551    0.03038644964503   -0.27824607327725
O           0.57238793369399    1.36838776207803    0.22817054570331
O           2.50471930404974    1.46094982205600    1.69435187723202
O          -1.27117029747335   -1.09416957349606   -1.64008565735040
H          -1.95421036245573   -1.20617750603126   -2.30201569578169
O           0.74734708181681    2.56047761833319   -2.16434637704278
H           0.58392546684078    2.29974915110160   -1.23794382772461
H           1.47457728237363    3.18438902977219   -2.14730423027560
O          -1.99987168077503    0.55974701238365    0.19680473052739
H          -1.62625105118409   -0.43707278321782   -0.96436597468575
H          -2.05948049379500    0.15211309962713    1.08676219619079
H          -1.15853534616907    1.04902612911794    0.21166788604764
O           1.16343048298949   -0.07874687813748   -2.38426564731737
H           1.00555628617618    0.87794075041112   -2.53531750851097
H           1.98094219879608   -0.06762211839069   -1.15889231358116
H           0.28906819958561   -0.46561420318312   -2.18368945896797
O           0.27651369519123   -2.40750892758428    0.10039374346890
H           0.85373204163638   -1.24811795136352    1.01164144293596
H          -0.29601563958621   -2.99070225518288    0.60253210086041
H          -0.26954051624619   -2.02603124485708   -0.61738447760861
N          -1.66229286081018   -0.39733256401426    2.75307689807705
H          -1.89607619631364    0.38632097823875    3.35063743219929
H          -0.64910905250609   -0.42864638114110    2.67957970925703
H          -1.96733505350151   -1.23960639009021    3.22519810934776
