    26
        -50.46516759  Gyration_radius:  2.53861115151 Dipole_moment: 5.803
 S           0.38044082867347    0.24223113897190    0.42718917812269
O           1.16720657364932   -0.83309519703345    1.05263448937844
O           0.56242029927293    0.22460687728590   -1.02142977286716
O          -1.09343247206847   -0.19434257364034    0.70477173772234
O           0.61672343495848    1.53800274597068    1.00958313577519
O          -0.49988038621413    2.63400363677601   -1.40962096536270
H          -0.06061573646947    1.76236863584155   -1.43236385842470
H          -0.00275842160323    3.14649469139411   -0.76600684680509
O          -1.26356402407880    3.01177383935417    2.17595128312413
H          -0.48850522196210    2.54377719342333    1.80036553339877
H          -1.27021214438396    2.80825198560874    3.11193634058221
O           2.96316370618182   -1.91277580239825   -0.65249788042417
H           3.59552821036083   -1.24870294078682   -0.93113132585991
H           2.42014136830537   -1.49130507721734    0.04296124260154
O           0.70878616162526   -2.16662308471984   -2.09253770895364
H           0.57320024786692   -1.20475146069004   -1.92490078185319
H           1.64749741471105   -2.29449527221984   -1.84542934552782
H           0.03164621641255   -2.65294359822887   -0.85452227608950
O          -2.51008039674415    1.79933522034186    0.11883573555237
H          -1.95533347472358    2.18940165055918   -0.59695630422272
H          -1.72095576243199    0.59102084355000    0.45889073376813
H          -2.33175917016786    2.36003195197966    0.90007134073415
N          -0.31167126574839   -2.74333291538866    0.18817348748457
H          -1.26049532383544   -2.38448368457388    0.28203334426675
H           0.32490843330063   -2.03893938896788    0.69911489472554
H          -0.22239910488223   -3.68550943519516    0.55488458915361
