    26
        -50.44722211  Gyration_radius:  2.48008447472 Dipole_moment: 5.453
 S           1.48149522372849    0.28183304941427    1.33047585448451
O           0.05091708397806    0.52001491187581    1.40700402507679
O           2.10888397238284    1.35000043795105    0.43679121003784
O           2.15267003811939    0.17579972793582    2.57162117419314
O           1.68839058497485   -1.04933323330989    0.54445870547479
O          -1.19814633588269    0.44243690529745   -1.96764066629283
H          -1.95512471944289    0.65713373399899   -2.51365258075931
O          -0.98169797270088    2.99153325964194    1.37355980736008
H          -0.57777574372315    3.50566769882563    2.07423210788302
H          -0.74151555213241    2.05999792749690    1.53933137882649
O           0.31425208187538    2.47140855962944   -0.91488782577425
H          -0.23256328471111    2.84913658156407   -0.19288067482967
H           1.39960385337780    1.81206157719753   -0.16838190725901
H          -0.24094484513998    1.79089188834989   -1.34274907187811
O          -1.89786349912427   -0.85336150059982    0.14702202834984
H          -1.52246949379401   -1.75826613793645    0.19150616391818
H          -1.34425617628989   -0.33256109870137    0.75508703449406
H          -1.54990163213452   -0.05590163809539   -1.16614402870964
O           1.18528129602457   -0.76950687474837   -1.97141644339488
H           1.52863984714452   -0.88771009956529   -0.43002502691982
H           1.06130189635244   -1.63471268278655   -2.36654472906656
H           0.34349437357654   -0.28305218506495   -2.08834936853552
N          -0.45664448654285   -3.15772957179755    0.56768529470603
H          -0.77427319983815   -3.49537377910702    1.46821012481989
H           0.41731319167617   -2.66260506700774    0.72253029927004
H          -0.25906651175421   -3.96780237045749   -0.00684286547239
