    26
        -50.44722215  Gyration_radius:  2.48008839807 Dipole_moment: 5.453
 S          -0.41566688327741    1.57766360504229    1.17625133224733
O           0.77831374787989    1.89560630584268    0.22445627310712
O           0.22985417890320    0.88190613269982    2.37312168481105
O          -1.02804075733116    2.79833317077774    1.54653991692120
O          -1.27249572324004    0.62625375055159    0.49083847511882
O           0.80699836528962   -2.15573611117297   -0.45224686864709
H           0.78720473632459   -3.06073471988058   -0.76505168259321
O          -2.62903686179018   -1.27055017416293    1.80903701384580
H          -3.16424811316268   -0.85464722299741    2.48652314279695
H          -2.31334117001836   -0.55390768864926    1.22621766322128
O           2.42330095316381   -0.08531682040048    0.04833520091006
H           1.92571061942329   -0.91787568829506   -0.08629713075208
H           2.97757209098633    0.03319271806128   -0.72545805715198
H           1.41423129736635    1.12303644530691    0.21989701402172
O           0.01330946973590   -1.60621149531854    2.11292997920413
H          -0.96414893512137   -1.69235253134974    2.10143891529185
H           0.31500518549500   -1.86539212133071    1.22061279519236
H           0.19390930757721   -0.15411133535819    2.28270428983569
O          -0.76207282372539   -0.64655045095593   -1.83100923055582
H          -1.15128535803994   -0.19836364933214   -1.05958404258606
H          -0.29210436188129    0.06578504796555   -2.31417219669197
H           0.17171634090666   -1.63332581628102   -1.03359386222416
N           0.43293621474092    1.65241936338715   -2.75358055147909
H           0.57116992589283    2.03446302626736   -1.82198996813056
H          -0.32039800249743    2.17508923339795   -3.18386819363660
H           1.27160654640039    1.83132700618654   -3.29205190207777
