    26
        -50.44722213  Gyration_radius:  2.48008256261 Dipole_moment: 5.453
 S           1.91932198726145   -0.14435509257637    0.58370330672422
O           2.38730606789705   -0.08702757804692   -0.86922012464279
O           0.91710384731098    0.88598698665316    0.79124621985812
O           1.19888990889930   -1.52249774797920    0.70308951676732
O           3.00863174791895   -0.13091931363905    1.48668096126997
O          -1.72887099937175    0.25399956550959   -1.56511928861322
H          -2.50891328104698    0.63655389820676   -1.96818500043180
O           1.02169059628312    3.24509824223552   -0.47356388068576
H           0.93850799382866    2.50150187923226    0.15338695667238
H           1.87368535954041    3.64991139530015   -0.30426391263623
O          -1.75020076926935    0.54606037053391    0.99510486302060
H          -1.80807202111749    0.40999235427743   -0.57321613467560
H          -1.77506458280230   -0.30378933196759    1.48386051539707
H          -0.82211377823857    0.83281516809167    1.05737988537231
O           0.74221066735376    1.23713431670089   -2.22776040639586
H           1.70998409458192    0.42241157547186   -1.47293056715683
H          -0.16054541198685    0.90621730522043   -2.05468245473073
H           0.80249683760412    2.10391789057774   -1.77165926994731
O          -0.30946439822633   -2.00043827511685   -1.33589834836925
H          -0.92640507941258   -2.70062535660611   -1.11424600464426
H          -0.84560703818106   -1.20790368361725   -1.54403409347026
H           0.66257637646014   -1.68974838331812   -0.12496316962444
N          -1.28186000382089   -1.78108450931692    2.38414957558910
H          -1.22557641147307   -1.49150675003053    3.35307527054646
H          -0.32955799051720   -1.87323979273466    2.04128287835721
H          -1.71015370947531   -2.69846510306133    2.36678270645138
