    26
        -50.44722211  Gyration_radius:  2.48007609514 Dipole_moment: 5.452
 S           1.89595218842497    0.50913847027553    0.43724345327128
O           2.24293405433249    0.57543711122025   -1.04885800273858
O           0.63347645898580    1.19414401926374    0.65180418578435
O           1.65268875485051   -1.00718362026646    0.70956201337099
O           2.97298622562993    0.94049623000231    1.24723184981111
O          -1.80306563480666   -0.43624887849807   -1.43589726706447
H          -2.68442613524421   -0.35170933021332   -1.80103111069683
O          -0.07725659396586    3.34453436226340   -0.77880084987975
H           0.61215936522739    4.00630748708316   -0.70681155363146
H           0.11158180431607    2.67207231758473   -0.09686352524291
O          -1.77670072217581    0.06738465394528    1.09122342384249
H          -0.98385668052629    0.63113207300111    1.05902405255253
H          -1.87347572249471   -0.22249224850694   -0.45414937344453
H          -1.50672757452382   -0.70026678078104    1.63855646739613
O           0.26351525444233   -2.11123274237217   -1.16457909261566
H          -0.08887882331456   -2.94469570173131   -0.84651240624331
H          -0.50515260724827   -1.54556855846048   -1.38379493081857
H           1.15231306737595   -1.40661465132164   -0.05944153749328
O           0.19405883010186    1.19718626373390   -2.36069660277030
H          -0.54817656700864    0.62092566498772   -2.09340634093304
H           0.00342269758683    2.07803668409550   -1.97243495678573
H           1.40820921246460    0.79353342474773   -1.63060020748475
N          -0.52621431992125   -1.86436863681707    2.59753553551688
H           0.38672914421010   -1.68893421097420    2.18681827164624
H          -0.64475170316164   -2.86671825189575    2.67863718330358
H          -0.51134398355770   -1.48429516036473    3.53624129134576
