    26
        -50.44722215  Gyration_radius:  2.48009370097 Dipole_moment: 5.453
 S           1.95169693451054   -0.15829087718475    0.45911777831994
O           2.29640247400429   -0.41982800083348   -1.00581825113418
O           1.17238408368788   -1.43330905543536    0.90587757370245
O           3.11326652979333   -0.04254221421189    1.25881462460128
O           1.02658911280498    0.95912807234139    0.52763084076199
O          -1.84014578886063    0.05954297685994   -1.45374813257236
H          -2.63042354477315    0.40814586448760   -1.86749126814490
O           1.14756533167062    3.01094612380795   -1.19033577991385
H           1.07898811040134    2.41251060379172   -0.42216934469486
H           2.03111962597525    3.38147847847863   -1.16872790417097
O          -1.62779577108342    0.84968754645411    0.98985236848773
H          -1.82614238390439    0.41236082667025   -0.51046463530826
H          -1.65575620566787    0.11618481138986    1.64018669945676
H          -0.68395084565087    1.07869786276199    0.92523782515318
O           0.61384307575925    0.72168471757553   -2.47931531915090
H           1.59797175843224    0.00652926044758   -1.64864557965541
H          -0.28706570738970    0.49397440777342   -2.17779133908418
H           0.75845811453999    1.65492561196397   -2.21261092470470
O          -0.52699804996216   -2.19784189446088   -0.87980348806519
H           0.55953962908382   -1.72280487363579    0.16975470016509
H          -1.15893161123292   -2.79694810166575   -0.47752846087952
H          -1.03642639899099   -1.42673071736327   -1.20352867896786
N          -1.16634154871808   -1.18576054090506    2.78108421144826
H          -1.01260750614994   -0.71604075403920    3.66514970118217
H          -0.25288272174472   -1.40861829917629    2.39527541231216
H          -1.64235670653664   -2.05708184589399    2.97999736085600
