    26
        -50.44722215  Gyration_radius:  2.48009117656 Dipole_moment: 5.453
 S           0.44724230616301    0.44304607693455    1.91018455527046
O          -0.62269394191474    0.88991158456868    1.03570895346315
O           0.67631806109907   -1.07312272414745    1.62493750079586
O           1.74923563701242    1.11106076331066    1.47217932925658
O           0.21453575178517    0.60583746571402    3.29636917726242
O           0.34506098802139    0.02130417652382   -2.32024526554633
H           0.14253981741710    0.17333304228672   -3.24388660051894
O          -0.68353122315618    3.36631057716841    0.01610663968871
H          -0.86289870985207    2.49766225119387    0.42377654806520
H          -0.63107948457435    3.99854184571170    0.73441574546673
O           1.47793423374874    2.03557494215780   -0.84664175245843
H           1.68830467877268    1.47393343263221    0.49882632581334
H           1.10450929815996    1.34514351185089   -1.42825443208091
H           0.75187975668787    2.67711848201410   -0.69096157278278
O           1.82116653741793   -1.46150006365784   -0.65530501271546
H           1.16196223910277   -1.17790592207760    0.75635990726811
H           1.70412339556997   -2.37749788903484   -0.91474408688114
H           1.38496019596210   -0.91625144232555   -1.34184804321718
O          -1.78147254981819   -0.50201218522196   -0.96207885799534
H          -1.77963686436967   -1.39911410472393   -0.56591889089355
H          -1.55899767568777    0.08905740774615   -0.22140705713145
H          -0.52925579805134   -0.17161953915647   -1.85893135266440
N          -1.58298279785517   -2.76587624173274    0.58709151491675
H          -2.44232653160029   -2.78304503480593    1.12288065789566
H          -0.86185748388175   -2.37380049135314    1.18640685830266
H          -1.33303985615868   -3.72608993157722    0.38497921142056
