    26
        -50.44722215  Gyration_radius:  2.48009390722 Dipole_moment: 5.453
 S           2.00009989776369    0.09587579587100    0.18807831361496
O           3.23517541222152    0.37927936749719    0.81770310661945
O           1.45374144912112   -1.24829662611401    0.76016837912510
O           0.96025368062159    1.09429860164245    0.36418992410341
O           2.17418986668812   -0.17196111437451   -1.30564769897186
O          -2.01216166363863   -0.21440862905627   -1.18672227735684
H          -2.88832732268359    0.02118351041008   -1.49343753947428
O           0.59101762763508    3.08543656589956   -1.38939014074536
H           0.70198211814405    2.50982126815754   -0.60883835705840
H           1.41608467294527    3.56109756871680   -1.49635084911573
O          -1.57289026056300    0.67906785551812    1.19011244366791
H          -1.91537944901706    0.16966250369435   -0.26066456643486
H          -1.42098835270620   -0.02964673900839    1.85071219622491
H          -0.68248550894186    1.01871071472515    0.99190503571317
O           0.17895743658847    0.70540705694873   -2.55245272440393
H           1.34770458583541    0.14405997575680   -1.85324764614694
H          -0.63747493262229    0.38039921877626   -2.12558838138995
H           0.24033933137362    1.65790357271342   -2.32449376757255
O          -0.36173692424640   -2.27447851650146   -0.76037594266333
H           0.78833291659863   -1.63520234462272    0.12079523987449
H          -0.85375580863762   -2.93176141246205   -0.26440128490613
H          -1.00254498238344   -1.58254573931483   -1.02404466136380
N          -0.62332442231865   -1.22255080859256    2.93558444003393
H           0.25043217091041   -1.34587167738414    2.43134013813217
H          -0.95544062137585   -2.13791235113540    3.21337786704008
H          -0.41180094730690   -0.70756761776261    3.78168874345389
