    26
        -50.44722216  Gyration_radius:  2.48009567836 Dipole_moment: 5.453
 S           0.71167725591332    1.16954500785720    1.47337195821908
O          -0.18744352066432    1.44323776855615    0.36620134593359
O           0.65245401134625    2.08377328611952    2.55172018677832
O           0.36247668236977   -0.25124508150009    2.01375001910840
O           2.13150026875599    1.02818792981945    0.92803757256398
O           0.16284090408897   -1.28301170808514   -1.95716400218454
H          -0.03747126762671   -1.56411066915708   -2.85053599216488
O           0.56832735061533    2.90013489676120   -1.75093173308483
H           0.11989615718716    2.48330896082395   -0.99061907900595
H           0.89459948181530    3.74720986241264   -1.44361400975668
O          -1.90718164323113   -0.27647785664124   -0.79845315150269
H          -1.43562674977801    0.49124607972213   -0.43007875755312
H          -0.68730279727091   -0.90125955486642   -1.57509583182991
H          -2.19793615226197   -0.78361070736902   -0.01104227859380
O           2.04339481745286    0.67007630440027   -1.55576028402185
H           1.40716099667236   -0.04342182716517   -1.75709002388841
H           1.60786675929070    1.50448037733548   -1.83335654240835
H           2.13481787130128    0.83983504530742   -0.09534931468583
O           1.12616863314153   -2.11121046646903    0.39562814470801
H           0.71498145393441   -0.94263524924820    1.38209449265369
H           0.67096380635995   -2.92643870926546    0.61525149531078
H           0.86584907408331   -1.88099579812810   -0.51986329873916
N          -2.42087351098165   -1.34285430143605    1.68420536970034
H          -1.56632333319448   -0.97492990645851    2.09322391754163
H          -2.54597424178550   -2.28951007496395    2.02116905132006
H          -3.18884232753531   -0.78932360836170    2.04430074558388
