    26
        -50.45059448  Gyration_radius:  2.46319198343 Dipole_moment: 4.137
 S           1.96558406434142   -0.35960007648789    0.10279827646652
O           1.80797438196660   -0.58666363940150   -1.40998722283669
O           1.22211758392624   -1.57555357219560    0.72160873279459
O           3.32426203374112   -0.38976772544049    0.49556260228932
O           1.22971440304720    0.83840746155490    0.45931365669684
O          -2.04405767010496    0.28975694797354   -0.90950420665001
H          -2.96865587279786    0.50335241831152   -1.03770539483856
O           1.23134243617576    3.02652265229180   -1.08305749152403
H           1.25376975615012    2.37243844153038   -0.35872432514697
H           2.13525131817903    3.31493547826128   -1.21826401734405
O          -1.28835004331978    0.91665760900726    1.45634003775413
H          -1.80610766049256    0.58720487300318    0.02971078585252
H          -1.30315586605412    0.09472346701051    2.00001801141625
H          -0.35061475896556    1.05582303111823    1.24011042587750
O           0.12041405462360    0.98217620834015   -2.38925902053246
H           1.11525072041155    0.07164108863062   -1.83516369029309
H          -0.72103042083677    0.82908686868557   -1.91351647338864
H           0.44712421523440    1.85647739798825   -2.08197522925623
O          -0.67044642826467   -1.99900395896078   -0.96072019357980
H          -1.27493065913317   -1.22362865488864   -0.95287088527585
H          -0.21501856924544   -1.98239167677662   -1.80715012664702
H           0.45338278321470   -1.78549415606227    0.10694568814748
N          -1.00895999241773   -1.46855986758374    2.74704222499235
H          -0.94037850951195   -1.47307493800169    3.75680790187249
H          -0.08910672440035   -1.67229655468084    2.36894787212541
H          -1.62537459546600   -2.22316913322777    2.47269207102643
