    26
        -50.44722209  Gyration_radius:  2.48006678925 Dipole_moment: 5.453
 S           1.58804945169025    1.15860195537021    0.42561969798397
O           2.50527810464405    0.22814943032679   -0.36573857096407
O           0.38881062074023    1.40533186890650   -0.35540787360692
O           1.16610947966125    0.31812395239752    1.66984798207395
O           2.27333806081422    2.31108338583084    0.87755911082003
O          -1.09821540291959   -1.80395767353912   -1.02107881975321
H          -1.75238143174961   -2.25360851582024   -1.55699397818597
O           0.44087173892410    1.55779003653613   -3.02941666003832
H           0.29990701388577    1.66945649857717   -2.06993703063898
H           1.08154873793061    2.22135759560639   -3.28951483812681
O          -2.05772040626937    0.34100267751337    0.03660120493995
H          -1.28648876318403    0.89528195375717   -0.17651158153063
H          -1.54367730873472   -0.98109886949392   -0.64832779928400
H          -2.07617331622407    0.31722453231762    1.01682884544655
O           1.19560594676533   -0.87759546290557   -2.20083348257534
H           0.91800216144086   -0.08761517927879   -2.71251681056189
H           1.98859275957733   -0.27881379136991   -1.11323471461582
H           0.37560782504226   -1.25711114564251   -1.82934832819649
O           0.58224119747845   -2.11454740947810    1.03547680130577
H           0.08284461931649   -2.51532493869912    1.74958755742681
H           0.00132700002985   -2.12060542550920    0.24721868945474
H           0.99336830122427   -0.62675424974544    1.38939475550881
N          -1.63394954933600    0.53010916468084    2.74745793440691
H          -1.97415446387561    1.45167433308028    2.99411946641674
H          -0.62423388712649    0.59695612826219    2.65282986498401
H          -1.83450847974473   -0.08511086168659    3.52631857731534
