    26
        -50.44722208  Gyration_radius:  2.48007040623 Dipole_moment: 5.453
 S          -1.39578777309922    1.44801238249262    0.02533157239763
O          -0.79257253807759    1.23496430260365    1.44775274367778
O          -2.50838244163472    0.40606101178225   -0.07344571320884
O          -1.90353196473244    2.76652161807938   -0.05079443893484
O          -0.35996621129662    1.11600512576242   -0.93689508091987
O           0.75812683716584   -2.21453875956830   -0.15444115242159
H           1.26404306957772   -2.95580013679660   -0.48895930664618
O          -0.92603933914412    0.00451832278165   -3.30764154820405
H          -0.59263716695051    0.52970811056680   -2.55534701494542
H          -1.56130599195537    0.55721420343910   -3.76523000752616
O          -0.50243795591991   -1.26825914555264    2.00547729194088
H          -0.08912146708380   -1.73032547067434    1.24751409535599
H           0.10049801693995   -1.35841224196550    2.74594275083292
H          -0.73940774034407    0.25492146459585    1.64268006635212
O           2.04240160843393    0.00306489493259   -0.42480197520627
H           1.32004790517968   -1.39096570996944   -0.29742707592154
H           1.28156012524910    0.50242216710903   -0.77007075190406
H           2.25147148289299    0.43851156933682    0.42867548771370
O          -1.65829843363266   -1.61369919607335   -1.29958818253077
H          -2.18217891105798   -0.46335539317627   -0.54295393988702
H          -1.43634871048968   -1.20746293128182   -2.16483785414474
H          -0.80744853227490   -1.89410053040490   -0.90989714408074
N           2.17234442462300    1.50085816277033    1.87820850244094
H           1.17012455504030    1.66734154510305    1.90638484373142
H           2.61281752329019    2.36728749937007    1.59334021297318
H           2.48202961930101    1.29950713473748    2.82102362906453
