    26
        -50.44722215  Gyration_radius:  2.48007975981 Dipole_moment: 5.453
 S           1.27067950978851    0.88114940224700    1.28635792237875
O          -0.16394642123253    1.00792401681821    1.09956879984219
O           1.63185131301094   -0.62395210801503    1.09463141501917
O           1.97933322481801    1.58981013702390    0.13358350733921
O           1.76481577737032    1.30161442065668    2.54380289517537
O          -0.92627263382800   -0.42345761025610   -2.11325947829787
H          -1.60641208059224   -0.49213242876008   -2.78405386824203
O          -1.26736949918167    3.19246833415112    0.01042599033988
H          -1.02041008916603    2.41326153322249    0.54407840199788
H          -0.98394576857812    3.96248097169627    0.50558005461425
O          -1.86899326777666   -0.89535457954329    0.23816005704398
H          -1.42413139515755   -0.14091910177667    0.66286642641686
H          -1.36921678680146   -0.61622421850308   -1.22945531321989
H          -1.47203641447208   -1.68348904671502    0.66595805170822
O           0.35343673558627    1.97150136447920   -1.74155108059424
H           1.34603674892823    1.73168796740647   -0.67978601929477
H          -0.11260319889283    1.13621777911738   -1.94041309102414
H          -0.30175461762014    2.54258705084568   -1.28596785291355
O           1.47387992714947   -1.34494609467644   -1.37848231908175
H           1.43466279078237   -2.30213766535766   -1.42558655720768
H           0.64087597328495   -1.00924813761498   -1.76870429426017
H           1.60356974234179   -0.85088082521672    0.12047045458308
N          -0.42084977105790   -2.74686459912691    1.66618081118416
H          -0.11659452487359   -3.69241032568441    1.46945301780033
H          -0.84961842786680   -2.75150527323954    2.58377432849962
H           0.40501315403708   -2.15718093318016    1.72236774019275
