    26
        -50.44722212  Gyration_radius:  2.48007558768 Dipole_moment: 5.453
 S           1.90995251430467    0.57907677388803   -0.24922558945233
O           1.53770421709314    1.32942358611536   -1.52660623291606
O           1.73440851706019   -0.92558409179624   -0.62033705981649
O           3.26116470970856    0.79477809813059    0.11110211150137
O           0.92833114466013    0.88825073855914    0.77544166835034
O          -2.28276332172095   -0.07258965893373   -0.53555184907746
H          -3.22699232036116    0.01297212889480   -0.39996709185153
O          -0.23856262530269    3.29355967264921    0.94554387199095
H           0.20455454056314    2.43573510790415    1.08946817984407
H           0.44272548152483    3.96504751866830    1.00369040994767
O          -0.84634165242183    2.10395426600918   -1.37882406397024
H           0.54270416620799    1.63384234819845   -1.51920508324598
H          -1.41358132448360    1.35500639263674   -1.11095577603769
H          -0.78720299925999    2.69007302676311   -0.59400820538109
O          -0.42087613442610   -1.33714282478370   -1.97917988959841
H          -0.63374110932154   -2.27211458427951   -1.95687817865534
H          -1.17099465816376   -0.86726845527847   -1.56036916740166
H           0.91476760377521   -1.03528677109673   -1.18375462141225
O          -1.06881749820206   -0.69891401448488    1.64953040632388
H          -0.34930299128341   -0.05306707708796    1.53714997428337
H          -1.88168782985162   -0.31311783754490    0.35650531888544
H          -0.62102779464290   -1.57051504079494    1.61023327105088
N           0.62336274464692   -2.85308158007647    1.40379062541110
H           1.08957345583163   -2.91339469805936    2.30092572621826
H           1.25347182253217   -2.37116270838955    0.76845421433033
H           0.49917134153159   -3.79848032581084    1.06302704067788
