    26
        -50.44722216  Gyration_radius:  2.48008838417 Dipole_moment: 5.453
 S           1.69246766054551   -0.81969504172013    0.71354156595807
O           1.20054412301224    0.54674478692395    0.71536699945389
O           0.47085109366324   -1.75247093251947    0.97840774499017
O           2.14105380460024   -1.17700065854923   -0.70221104320891
O           2.69283810868869   -1.11249790005856    1.67045295287666
O          -1.47479340545348    0.69309458854223   -1.68750167924516
H          -2.03001161123678    1.29328112752815   -2.18629148053472
O           2.26087059358955    2.44062870812950   -0.85453397937394
H           1.88125868663807    1.89838170189468   -0.13705895851892
H           3.20411420913734    2.48623240552270   -0.69137385521825
O          -1.37158539174052    1.35175024753960    0.80174282352351
H          -0.40740193312278    1.24367484373737    0.88006359508548
H          -1.48248808859497    1.01524379003432   -0.73323883400041
H          -1.74187389568827    0.66949059862684    1.40103170513079
O           1.18142035346626    0.47846056764386   -2.32818288526092
H           1.73126012847576   -0.53430112082575   -1.41061027307012
H           0.22254824722855    0.57196116749399   -2.16622726817865
H           1.59208693934838    1.30445576645806   -1.99342462469407
O          -1.10372707916803   -1.88007468273548   -1.06253549019666
H          -0.08801119751237   -1.81097611594440    0.15044092316383
H          -1.95312849572257   -2.22772503263417   -0.78386953749657
H          -1.26829090522975   -0.97972542495760   -1.41058838036006
N          -1.89625777547927   -0.72666320546422    2.52499761757334
H          -1.06563794970506   -1.24732922495595    2.25686165948088
H          -2.66280093232573   -1.38300602604546    2.60854908652175
H          -1.72530529741286   -0.34193492366591    3.44619161559514
