    26
        -50.44722211  Gyration_radius:  2.48008060385 Dipole_moment: 5.453
 S           0.63500287850133    1.19025333843727    1.49165066200002
O           1.45304235774322    1.59781130581240    2.57186505865706
O           1.33056827848446    0.58917492686882    0.36736090195643
O          -0.38837787136535    0.13834113203703    2.01965115222878
O          -0.23307402126068    2.33597394224211    0.97490173928660
O          -1.19346352767948   -0.49593508258942   -1.95768367206221
H          -1.33482223946111   -0.79651374887346   -2.85597511688531
O           2.15924342662687    2.03632883194125   -1.72901643175855
H           2.71237853499613    2.75201344554778   -1.41237713517304
H           2.04498249965229    1.42163267522685   -0.97934016553501
O          -2.38553861772460   -0.15340499067283    0.41112147234478
H          -1.16689375328786    0.08884575611198    1.39296747329665
H          -2.06009829549215   -0.23749197634625   -0.50862556913870
H          -2.84075620502675   -0.97178691651446    0.61877051133881
O          -0.51141756642338    2.12086132403110   -1.51137065390026
H          -0.40329003264248    2.25971631407645   -0.04882306222524
H           0.42531647812592    2.19230280525818   -1.79495321368021
H          -0.78755949426827    1.20915039112985   -1.72805169914147
O           0.75721375630224   -1.75377090868845   -0.83819013120377
H           0.48371694805883   -2.28218170928005   -0.05862027848405
H          -0.42001473252047   -1.02727277997686   -1.59172264395617
H           1.16712483845073   -0.95714784576531   -0.45763992012247
N           0.13741623289340   -2.79745098379922    1.62978450519139
H           1.01395669673987   -3.16821246870255    1.97626986297417
H          -0.60079137365731   -3.40643075456608    1.96074090285568
H           0.00613480422961   -1.88480600294963    2.05730546113646
