    26
        -50.44722215  Gyration_radius:  2.48009200594 Dipole_moment: 5.453
 S           0.17908398178548    0.88839046424006    1.79552973806675
O          -1.22308211116343    1.48030447030410    1.66573737732777
O          -0.06224968432296   -0.64400021247285    1.95724986840373
O           0.88522216305752    1.08415836745612    0.54165566711192
O           0.84254137248284    1.35992951138820    2.95295386658600
O          -1.08160353979011   -0.50515242551054   -2.01939921010130
H          -1.19754818422310   -0.57807631595640   -2.96728099376388
O           0.50016588233893    3.25337643652807   -0.98213941929401
H           0.84106514326046    2.49729645074488   -0.46729719085521
H           0.65604476754334    4.03626909717472   -0.45184639854457
O          -1.76253410684647    1.83266143412969   -0.76121835070452
H          -1.05483494110789    2.46798006373184   -1.00308696852677
H          -1.56806276396352    1.01408320616194   -1.25773731869682
H          -1.49841499978512    1.60549210933020    0.67008446105633
O           1.39222768631941   -0.77101455625003   -1.34850998753604
H           1.39657289653157   -0.01726429681412   -0.73264105888998
H           1.55956442853758   -1.55132749661482   -0.77855731582558
H          -0.09709186022932   -0.61546083398704   -1.83767279926493
O          -1.86789992772445   -1.51134072002843    0.32985278532527
H          -0.79877427542681   -0.93075811257489    1.34359975425314
H          -1.70361858481909   -1.15502329312742   -0.56733925269940
H          -1.80069135468242   -2.46592306813155    0.26429734890454
N           1.80994842118323   -2.60636885156584    0.65684399243270
H           1.30619745096285   -2.06202740457109    1.35172237119044
H           2.79669311523663   -2.52791951252630    0.87135994600805
H           1.55107903484015   -3.57828450105490    0.77383910804077
