    26
        -50.46797323  Gyration_radius:  2.4726424929 Dipole_moment: 6.424
 S           0.52339862571230   -0.67151122550122    0.74722042710291
O           1.47273284134824   -1.50255226944021    1.63617078937278
O           0.15768420179972    0.54336796741583    1.45112099919383
O           1.20376825071352   -0.38899337577822   -0.51692216776034
O          -0.64940845369577   -1.51805896821845    0.49010886577425
O          -3.03522191735958   -0.31403332410380    0.51253119437955
H          -2.17742624178602   -0.75582468564245    0.68829879271142
H          -3.44863888296015   -0.18769212110077    1.36770320601447
O          -0.30370756602239    0.81198414308902   -2.32511824754325
H           0.44604502640671    0.44990476034516   -1.80424040705046
H          -1.17729193658376   -0.34592942666678   -2.21515951437374
O           3.44943318521511    0.89516458666868    0.05182619630507
H           4.16596090891427    0.38652273597159   -0.33112823828095
H           2.61866345081517    0.46342703159007   -0.24173100565983
O           2.59509845658590    0.59108623157696    2.57473169178437
H           2.01321750441828   -0.80017125366163    2.10985285228076
H           3.10333084611576    0.85434927326075    1.77908600411703
H           1.72187278573509    0.99657372478510    2.46155652242379
O          -1.45900839822891    1.86770788258301   -0.21885342059474
H          -0.73993532592384    1.43379302156645   -1.68778930383060
H          -2.24035626318474    1.32204581452198   -0.04110520652381
H          -0.80353809337648    1.56667655108976    0.44034110988786
N          -1.74708387628767   -1.23521814317979   -1.85794623581385
H          -1.77763170380436   -1.98934082105819   -2.53483596824189
H          -2.68306891835054   -0.95612634767789   -1.56323387861022
H          -1.22888850621171   -1.51715174242813   -0.97248502706452
