    26
        -50.44722213  Gyration_radius:  2.48008818311 Dipole_moment: 5.453
 S           1.34945941326439    0.39206069031225   -1.43885053746008
O           0.23558469711733    0.52897034747897   -2.47510111442965
O           0.96605412544885    1.12248664442139   -0.24360028898449
O           1.35315062679979   -1.12438303516187   -1.07415984551638
O           2.61382854847732    0.72346907633535   -1.98079029692634
O          -2.16476214569272   -0.26496923122119    0.86404200024561
H          -2.90851767379097   -0.11727826077761    1.44907503271032
O          -0.46418273101894    3.38457847802763   -0.35846258213059
H           0.17014473185893    2.66495177750856   -0.17767610170589
H          -0.01346693708621    4.00743073297890   -0.93059856123576
O          -1.03814342675540   -2.04916583113215   -0.77823607044362
H          -1.56413711804737   -1.43570212752943   -0.22514502442203
H           0.41018560566120   -1.45371208688512   -1.01396515071252
H          -0.99759010379966   -2.88219143041322   -0.30443199354627
O          -1.86345305751109    1.32356683978247   -1.34907665095692
H          -2.03951154469440    0.76842657596232   -0.56470313299347
H          -1.55460113595983    2.18808339443303   -1.00237474533961
H          -0.66323916355122    0.82040943581022   -2.03923277007134
O           0.07831540427156    0.08727024046431    2.08270527611357
H           0.48224876170515    0.61369358871412    1.37054624781771
H          -1.33163441924241   -0.10625930299160    1.40734138519217
H           0.62859428352820   -0.72323194090309    2.12766183610627
N           1.85567979480841   -1.98714951597985    1.76308925482034
H           1.96146421395443   -1.83129090669714    0.76436847627241
H           1.79281192079989   -2.98578318127469    1.91835712002757
H           2.70571733945488   -1.66428095126288    2.20921822756747
