    26
        -50.46797327  Gyration_radius:  2.47249061061 Dipole_moment: 6.432
 S          -1.00519727585099   -0.38983477156367    0.34982606223185
O          -1.48313345797507    0.47003226909110   -0.74106172339856
O          -2.26299461461203   -0.89892032263033    1.08524495290209
O          -0.26037012068221   -1.52692874608519   -0.15761617130898
O          -0.21468630655180    0.40910053411807    1.28668924669957
O           1.87491736801318    1.61105455049108    0.20395571640520
H           1.22414271505858    1.21461560947334    0.82359469509027
H           0.91586476380601    2.26186945534331   -0.67522889444395
O          -0.19209583814445    0.28593877074114   -3.07405701932131
H          -0.45813888639346   -0.42235146771056   -3.66202219688885
H          -0.75371227808559    0.20095374847293   -2.27458696395227
O           0.37384222961863   -1.13139239167472    3.35929312177052
H           0.23444219722919   -0.51278203854237    2.61048328423111
H           0.04308702412264   -0.68557965929081    4.14070806342795
O           1.88147197246546   -0.48487601271912   -1.37484879798462
H           2.14771084047712    0.84081830266414   -0.35770269815149
H           1.22568547451994   -1.01101462642260   -0.87682268155126
H           1.40837415402408   -0.21648122496422   -2.17729903841585
O          -1.03404539975754   -2.95040791790431    1.98246223266888
H          -0.47129142794392   -2.50473021595919    2.64985692138854
H          -1.94628285548199   -1.75153504852007    1.51255620384138
H          -0.53322196435752   -2.89683700118206    1.15415661788799
N           0.03440149384231    2.51266442206754   -1.31004729478026
H           0.23338567345023    2.29512121824344   -2.28673259269577
H          -0.28107636955216    3.46946730751108   -1.19689932415900
H          -0.70107909123961    1.81203524694896   -0.99390171149335
