    26
        -50.45059461  Gyration_radius:  2.46314882996 Dipole_moment: 4.140
 S           1.57718085824232    0.44475106825591    1.14839754920753
O           1.44551189533013    0.50006600600169   -0.29500858315195
O           1.00567410674417   -0.91899271726684    1.62565110028798
O           2.88740835286596    0.60887947222641    1.65586031703339
O           0.60146449787437    1.46502490235405    1.75825150019945
O          -2.07965994648830    0.12762508426141   -0.86402831033618
H          -2.85272152637005    0.00389724957919   -1.41539149355844
O           1.15780984641421    2.81196552440220   -1.61368332425170
H           1.40050698554960    1.92178913644149   -1.29479615128048
H           1.89477675731465    3.38741180031846   -1.40330139874806
O          -0.92011183881994    2.41682918374600    0.01279308798816
H          -1.39547911013035    1.66336545525370   -0.39232797652979
H          -0.03193126427926    1.88125866046827    1.03736332936831
H          -0.28453099704208    2.73034805306094   -0.66788933765813
O          -0.07355657283537   -1.15005141769889   -1.81496488182097
H           0.61336617592638   -0.57343152513205   -1.43931299742361
H           0.00386086853692   -1.99521135785349   -1.31385531979497
H          -1.32257308204196   -0.37755503656938   -1.30993590155965
O          -1.52472145362625   -0.48709347019228    1.67415932736385
H           0.00493215269257   -0.81671131889617    1.65455870299805
H          -1.59176178157648    0.35093854323872    2.14035362889706
H          -1.83143829696436   -0.32127118975614    0.75486872925669
N           0.26349169170698   -3.26088725646383   -0.12264253549804
H           0.77158681189601   -2.73585960282678    0.58217766624700
H           0.84514831401447   -4.03552256005711   -0.41581823654276
H          -0.56423344493237   -3.64156267689499    0.31852149931010
