    26
        -50.45271266  Gyration_radius:  2.56248703856 Dipole_moment: 2.807
 S           0.98596313429441    1.09094220072709    0.54440983947002
O          -0.30146731437002    1.39608682563677   -0.05237671101004
O           0.89968917816346    1.17222199423675    2.04763442028554
O           1.28970085508424   -0.40543394414648    0.24927030777025
O           2.07375446869984    1.88884717004644    0.07570422807228
O           0.63195531950047   -0.36589207357376   -3.46633154961078
H           0.26460780514816    0.29037388140918   -4.06074984309090
O          -2.58690385095734    1.48738257020650    1.31438729122875
H          -1.81069249995246    1.54005035470396    0.72118495792677
H          -2.75065153050199    2.37920418168990    1.62531891412222
O          -1.06183664230546   -0.11938367789709    2.79548834442673
H          -1.78947470156746    0.39859527509633    2.38293241597142
H          -1.03115028642414   -0.99518826550848    2.30687909265710
H           0.05717651402358    0.59255959974373    2.42853544553622
O           2.71373953269202    0.84702534521393   -2.28825306781780
H           3.47390221204474    0.30379265073149   -2.07211600706530
H           1.43436445380246    0.04505459501235   -3.07530666363931
H           2.49713947024155    1.33772698913778   -1.47048357022576
O          -0.69396664620539   -0.94876444026565   -1.25773852650120
H          -0.98716895149912   -0.05172074433425   -1.03171801382241
H          -0.28097827939892   -0.87286871034257   -2.15280807614654
H           0.54922213209879   -0.75228392982388   -0.34569066814061
N          -0.93315197668076   -2.35531798021161    1.36415270210936
H           0.02967467992448   -2.66778347992974    1.38551767114319
H          -1.14849969311029   -2.10224953137028    0.40493109592777
H          -1.52494738317038   -3.13297686597880    1.62722597088528
