    26
        -50.45271285  Gyration_radius:  2.56215384145 Dipole_moment: 2.805
 S           1.01447882752927   -1.07394272053226    0.52388902269053
O           1.31287764333453    0.38932286236981    0.08950950084095
O           1.07888397387470   -1.04395806831415    2.03009298845001
O          -0.33172868304170   -1.38933060516429    0.08237617732933
O           2.03542284370686   -1.93020589165287    0.01012665520602
O           0.28875445762068    0.09451581634793   -3.52981079582002
H          -0.14490738515156   -0.59675955337340   -4.03281729829992
O          -2.46917105025005   -1.32361355807956    1.67193640820950
H          -1.75781766532488   -1.43877674228142    1.01020557325193
H          -2.61623246489419   -2.18597676351129    2.06374668176937
O          -0.77414181165288    0.34786521379169    2.86922124720711
H          -1.54877164166368   -0.18035313244460    2.57095047142537
H           0.28933993029053   -0.41699576446364    2.44790501076544
H          -0.77720167917852    1.18450055310751    2.31534654982709
O           2.46153476956454   -1.06800572535205   -2.47171161685127
H           3.24313622027760   -0.52255269220527   -2.36551902887994
H           2.31757125635518   -1.49683066061304   -1.60468706633490
H           1.12094964467184   -0.30231784173092   -3.18961252134843
O          -0.80139196361712    0.86951571375839   -1.25239686474488
H          -1.08600941328332   -0.00107298713802   -0.93170312002454
H           0.52296047620622    0.70966856798425   -0.45446169263269
H          -0.48104290764549    0.71802991924153   -2.17536983668403
N          -0.75002083617264    2.46903591278402    1.26771628499938
H           0.21594131402444    2.75587479141508    1.16893222033418
H          -1.29642267942251    3.27966730808091    1.52944052135986
H          -1.06699117663506    2.15269605805657    0.35669453779944
