    26
        -50.45059472  Gyration_radius:  2.46310024939 Dipole_moment: 4.142
 S          -0.44859627995359    0.73194748963735    1.80769874998068
O          -0.82202795908173    1.57707656520819    2.87889590729676
O          -0.76028378357183   -0.74246958377226    2.11404448640273
O          -1.02202916365080    1.05632215524509    0.51552673778204
O           1.09781098390480    0.74173709118090    1.65714893756727
O           0.23580187792575   -1.50372676055617   -1.66442609755152
H           0.37965249236412   -1.91016149559783   -2.51943150489212
O          -3.43005252477332    0.16465658938573   -0.24109371192673
H          -4.08390843525254    0.44004128657238    0.40322153606188
H          -2.62087417299255    0.67707714242694   -0.05237272214404
O          -1.76415537775602   -1.88690768670101    0.12652223650146
H          -1.19323527320469   -1.22998979190739    1.29607417257399
H          -2.51118948403621   -1.29051051874364   -0.10114669419836
H          -1.12096099006665   -1.80127065538150   -0.60612866185016
O           0.29349922356306    1.05024399623196   -1.85288853543962
H           0.24289221798669   -0.50160832821025   -1.81571401787064
H          -0.27920587482875    1.23076690251031   -1.08809496381457
H           1.19052616709844    1.34735119711487   -1.57278581646546
O           1.58239845499727   -1.56542962496781    0.64021847170933
H           1.35203610772129   -0.14192680544463    1.24811302959602
H           1.07050859734898   -2.15844965219596    1.19737612993745
H           1.17818526218667   -1.60397826038935   -0.25521977632910
N           2.66056073977145    1.77041382693237   -0.70762701676455
H           3.43338646632092    1.12164639922182   -0.78846909484632
H           2.32080218962084    1.72359787176517    0.24785404081641
H           3.01845851835792    2.70355065043864   -0.86729582213580
