    26
        -50.45271276  Gyration_radius:  2.56242709377 Dipole_moment: 2.804
 S          -0.74447173432521    0.20790266544910    1.36326309381348
O          -1.30929862508491    0.40526564017144   -0.07223495497010
O          -1.72571112122134   -0.45222350779357    2.16380497381654
O           0.51932731954003   -0.49466394953408    1.23713614173880
O          -0.51760002387316    1.60686903679403    1.87807757073853
O          -0.98250515776129   -3.15775326379795   -1.27233095213682
H          -0.56942099212120   -3.93910486684880   -0.90120794957987
O           2.89872370230997    0.70154938620361    1.32363752238008
H           2.09311957373796    0.14650680024786    1.33348517523906
H           3.23059055815943    0.71263889405458    2.22284364407420
O          -2.73535976532588   -2.34327292423008    0.58651813688737
H          -3.54717138344133   -1.93739679241059    0.27695507870249
H          -1.67285447214741   -2.88668316955983   -0.62760950486884
H          -2.37051944893826   -1.73005599355667    1.25525970347085
O           1.26650470140722    2.65689923533447    0.54049886684515
H           1.05302081175920    2.46638918702312   -0.42124640624666
H           0.24997805947183    2.12239161354236    1.29822420235299
H           2.03020009819254    2.08073914076258    0.77029762696666
O           0.42122702571568   -0.92358944027583   -1.39155896172151
H          -0.68944064848537   -0.07702391903577   -0.70920467610693
H           0.87343233126686   -0.99802630899930   -0.53612119887074
H          -0.05070314901384   -1.78343905065508   -1.51543852092949
N           0.65637448176713    1.99776170634356   -1.96104453826590
H          -0.33907707955961    2.14501146659199   -2.07285151584750
H           0.82762487576100    1.00135647783590   -2.05233322634115
H           1.13401006190027    2.47195193578284   -2.71681933061220
