    26
        -50.45271285  Gyration_radius:  2.56210729676 Dipole_moment: 2.805
 S          -1.06163189775575    0.84991350956487    0.77885224128416
O          -0.88354373064425    0.91110422759165   -0.66033139035404
O          -1.15640839531185    2.11712373931658    1.43052352298725
O          -2.26129956075979    0.00385111854431    1.12324845069948
O           0.14980540176095    0.06818898414973    1.36193943072506
O           2.90397322241504    1.99940360822154   -0.34767992554265
H           2.90206972746186    2.67264763690842   -1.03006866055585
O          -2.11842512204870   -0.70810713219116   -2.37883979271007
H          -1.65509022171303   -0.02344205816386   -1.85565885676108
H          -2.94272099781704   -0.31456582044473   -2.66950540950742
O          -2.10756593905721   -2.11952287844755   -0.11867700302679
H          -1.16679795463846   -2.44997748723539   -0.00644924835504
H          -2.22439457823762   -0.96074398217330    0.61401794835289
H          -2.17438482872464   -1.79429437439337   -1.04486499382670
O           1.52898766776757   -0.21684746619780   -0.76353576709705
H           0.75795561952065    0.17853796548616   -1.20055196322862
H           2.18298186938397    0.51844284939650   -0.66793149941171
H           0.78273734807285   -0.12197310406442    0.59658019747080
O           1.35451200120412    2.98176866447872    1.60801688099010
H           0.40207733339877    2.77891294515910    1.51790268420981
H           1.58565745693751    2.75037051324356    2.50953592135128
H           2.39185612354543    2.37525257236116    0.40217345442570
N           0.43639892193124   -2.83746200501310    0.15965648271309
H           0.68030793577570   -2.69623377797408    1.13212299125430
H           0.98746510687492   -2.18491241570978   -0.38895043574187
H           0.70547750070507   -3.77743582251439   -0.10152529041623
