    26
        -50.45271258  Gyration_radius:  2.56274813239 Dipole_moment: 2.797
 S           0.48338924562668   -1.24079370720516    0.82680365482516
O           0.45892557649508   -0.93136855786133    2.30242389165307
O           1.12064492531264   -2.49937097931468    0.60413740553499
O          -0.84863340662020   -1.11852375573982    0.26331183375691
O           1.35448582434578   -0.11307957402552    0.20401067975982
O           0.52361445796701   -0.73485231350910   -3.42528404684431
H          -0.11490117196447   -1.29761460417938   -3.86633909780216
O          -2.88674814737162    0.05608272544750    1.51466546014198
H          -2.23631825289280   -0.44637603100171    0.98398536374782
H          -3.38280867444533   -0.59131872452782    2.01825937257336
O          -0.75376924854283    1.18733752670911    2.64240047862362
H          -0.39584005933040    1.83426570688989    1.96405794492399
H          -1.65249563142378    0.93477174012973    2.33173871502025
H          -0.04820464141531    0.01439990015389    2.50054521331689
O          -0.31717619918214    0.83255339545338   -1.47298322366695
H           0.78754771966839    0.35924690669139   -0.48747158761165
H          -0.02386083145061    0.38958437301680   -2.30679720914818
H          -0.93758280665471    0.21362229472433   -1.05607759137146
O           1.98588223016871   -2.39572244825625   -1.91032509314713
H           1.10700989788734   -1.33910078058121   -2.91523693773533
H           2.91552792792917   -2.18856443618243   -1.79827616324109
H           1.63722660913325   -2.54719351951010   -1.00925233824757
N           0.19482857021637    2.77594913997386    0.73421637464527
H          -0.00939137717245    3.76598050942437    0.78249104114636
H          -0.16187806702179    2.42053264305863   -0.14725149179399
H           1.20052555072860    2.65955252989240    0.72224734103058
