    26
        -50.45059459  Gyration_radius:  2.46316428333 Dipole_moment: 4.139
 S           1.52576739430751    0.81724950240233    1.00405200179223
O           0.38259397256955    1.46016497990216    0.38469221584421
O           1.00234216821618   -0.39189028798324    1.82757645941477
O           2.35932725290402    0.15104305426073   -0.10331821749893
O           2.32343055161055    1.64056722891702    1.83292637160696
O          -1.09330437824126   -1.12794014199863   -1.61886676063537
H          -1.77879750805809   -1.49805754616686   -2.17568591265341
O           0.57491262939959    2.79240892862509   -1.92930645966898
H           1.23647363542216    3.48029447588838   -1.84176116595267
H           0.38168988141340    2.47616439567825   -1.02616717992210
O          -2.10429028190836    0.40771530909525    0.16466459016461
H          -2.16630369988252   -0.11008234464954    1.00098699504005
H          -1.32240191055940    0.97424397583811    0.27940619029678
H          -1.55681487602180   -0.51382862548869   -0.95914126850823
O           1.16121561794884    0.21602454479239   -2.30061757729132
H           0.30515237849073   -0.24048939806368   -2.17197450655230
H           0.94540642537303    1.17038521319609   -2.39118987598934
H           1.87640870765238    0.18299923552712   -1.03060982148599
O           0.70000964870614   -2.20798531133514    0.03814464413924
H           0.85183968607436   -1.14153507340705    1.17321827838542
H          -0.00599057562821   -1.92064430822934   -0.58288414897275
H           1.52687862761531   -2.16925650442943   -0.45064638541877
N          -1.87655101487386   -0.99492463865254    2.49144292739517
H          -2.41107086267782   -0.69617917227521    3.29729203621972
H          -0.90396666912493   -0.75243335446031    2.65228637639825
H          -1.93395680072685   -2.00401411698281    2.43548019385224
