    26
        -50.45271283  Gyration_radius:  2.56199217782 Dipole_moment: 2.807
 S           1.35359590114246    0.23937538604676   -0.75349970465343
O           1.11669020716485    0.33854284584668   -2.23931741615269
O           0.71517082701104   -1.11864009811124   -0.34457863232493
O           2.75571425291273    0.19470102533527   -0.48597937783938
O           0.62791879955395    1.28496053112450   -0.05580023379039
O           0.78071653490136   -0.63392523873133    3.39698487257412
H           0.99039060529034    0.11785382654903    3.95358473308589
O          -1.29225071997265    2.75757535729597   -1.17128652845368
H          -0.56995676915004    2.32489523139741   -0.67304433451473
H          -0.91899383004642    3.55450532419796   -1.55129951100831
O          -0.93404778734367   -0.29473649909182    1.41697176313386
H          -0.64580332358418    0.58763136842678    1.13390951602552
H           0.01643444717215   -0.92360977238667    0.35982741140433
H          -0.43422131195162   -0.48025475606935    2.24954057681204
O          -1.30797364947995    0.53206153479300   -2.63671512093058
H          -1.49566014539304    1.39509414791788   -2.20313512231636
H           0.05094493751962    0.40131482565176   -2.46665052998261
H          -1.74845606627477   -0.16741123645650   -2.06787531060280
O           2.95935180129139   -1.00920531476857    1.87902181431101
H           1.59578035563082   -0.82207102120390    2.88121749385523
H           3.17152982095567   -1.91069694185180    1.63006456463235
H           2.97406795102332   -0.49406144152709    1.04789381327380
N          -2.36708799194034   -1.28234502440011   -1.00869570065388
H          -2.23915346452973   -0.93802265230343   -0.06235263282326
H          -1.81321959653712   -2.12479881504278   -1.10153170306866
H          -3.34148181533168   -1.52873257263801   -1.12725470011693
