    26
        -50.45271276  Gyration_radius:  2.5621735138 Dipole_moment: 2.803
 S           0.01383689978603    0.01750141528883    1.56677634561436
O           1.29288493025119   -0.58739026592660    2.08786514129613
O          -0.89115058930331    0.24844678516860    2.64716737248063
O           0.30275021231271    1.18084692057729    0.74825658322528
O          -0.58149916811728   -1.07139762697985    0.62939004633567
O          -3.22023287647025    1.04799156297120   -1.04115935199316
H          -3.40999547225008    1.98749824576965   -1.02388427605186
O           2.72836490500375    1.77972646985942   -0.17804223070364
H           3.18379595503067    2.35664493306584    0.43726049657189
H           1.81012206969293    1.69718576496553    0.14935150063810
O          -3.30423205033498    0.27217554710255    1.52466290867318
H          -3.31182600537540    0.73834665193162   -0.11302392958856
H          -3.62235170884362   -0.61398620333086    1.70728309281259
H          -2.45701800057401    0.35439124421074    2.00623617807839
O           2.86044132677248   -0.85400151011904    0.20483990696331
H           3.00532504299978    0.08605852867913   -0.04680494300885
H           2.01189922256510   -0.74784651608855    1.28225711398364
H           2.33801928998514   -1.26632518643547   -0.54610614150489
O          -0.74243941870135    0.27484498148210   -1.52977613935905
H          -0.28070028664542    0.96091363566430   -1.02191337851111
H          -0.68607167808506   -0.65623495764183   -0.28682193038425
H          -1.69539159335267    0.53802914415037   -1.52169527227193
N           1.34894517808779   -1.84551114922729   -1.74353311459520
H           0.77593327372340   -2.57273930580490   -1.33376438723730
H           1.80391405428249   -2.22463035102643   -2.56417227763391
H           0.72667650785628   -1.10053875844671   -2.04064931369539
