    26
        -50.45271267  Gyration_radius:  2.56237763013 Dipole_moment: 2.797
 S          -1.05445476776725   -0.81325158805473   -0.82578013775412
O          -0.35098094987532    0.34704041046587   -1.34128779835079
O          -2.46298631967269   -0.81960351350951   -1.06152548608593
O          -0.43815937236271   -2.08083806124255   -1.36139763914454
O          -0.79534127645103   -0.86813104739709    0.70652907935106
O          -1.70449703690730    2.70256381894175    1.53203812148337
H          -1.90189632534545    3.46943879643540    0.99181620463262
O           2.02057401727752    0.22463939470240   -2.54889735532350
H           1.13071737325800    0.38857263789358   -2.17660974687766
H           1.90421625551300    0.12966977325191   -3.49561782015538
O           0.48086838620948    1.31995206859944    0.99616443093738
H          -0.23607806575343    1.91987693204250    1.31814744665259
H          -0.27218745966112   -0.03875598061664    0.95376419246133
H           0.43652865637378    1.36107696336262    0.02757555405719
O          -3.46923046138652    0.83550508716319    0.76336801801720
H          -3.79076946302472    0.22926962629089    1.43314059686811
H          -2.38579556842332    2.03164054228839    1.30530553913623
H          -3.17852232726993    0.27536811702893    0.01627820496389
O           2.00240584999545   -1.96930040642094   -1.03721694601884
H           2.15198174757831   -1.65481488579746   -0.09613206144938
H           0.64391773885054   -2.08840757126553   -1.21663868831907
H           2.22815740529526   -1.20849856092318   -1.61885185792573
N           2.27110066478685   -1.02899203762319    1.43402819919065
H           3.18146390086554   -1.07439764341706    1.87377951319384
H           1.61235351367987   -1.53185617056275    2.01567610241031
H           1.97661390422203   -0.05776671161457    1.41234433397451
