    26
        -50.45271281  Gyration_radius:  2.56197765758 Dipole_moment: 2.809
 S           1.14233435617763   -0.31697383322306    1.02590513969817
O           0.51547129529377    1.06683664071450    0.69304975955929
O           0.55642242463528   -0.68757889810133    2.36491755391167
O           0.69838398567314   -1.24864159850124    0.00527186361838
O           2.55876113678813   -0.17260257176891    1.13740224277846
O           1.53445551189974    1.25668698892884   -2.93498382485630
H           1.93325833152717    0.62430299495838   -3.53493165545970
O          -1.30926821480253   -2.96824490324272    0.33830660057113
H          -0.97663333443238   -3.80490249226507    0.66718228829678
H          -0.52474592058493   -2.42654398048217    0.11855230410449
O           3.23875092780230    1.43415930956619   -0.87235978124618
H           3.09028315953201    0.78197781232715   -0.15894723309656
H           2.18085885428179    1.37906252247731   -2.20495617991531
H           3.31256511240943    2.28487293610068   -0.43587683908367
O          -1.86726097258064   -1.04123013148924    2.09183146688307
H          -2.21050292520751   -0.26894212562556    1.55085019707254
H          -1.87124706808955   -1.81980675602787    1.49025063167753
H          -0.52379327115663   -0.83048164454317    2.29864051593809
O          -0.57949290589332    0.50681025273241   -1.54056330996297
H          -0.29835896733952   -0.40023690230547   -1.34052534575858
H           0.02866782324362    0.97343740037477   -0.18834496645736
H           0.09227926190924    0.85616268509848   -2.17627390060389
N          -2.63945981726397    0.99250108357871    0.56489600565870
H          -2.25526695535264    0.82763838230777   -0.36016105139671
H          -2.19647370986752    1.82547098976568    0.93237606821931
H          -3.62998809851944    1.17626585847347    0.46849142992721
