    26
        -50.45271279  Gyration_radius:  2.56222336693 Dipole_moment: 2.804
 S          -0.22171953512570   -1.21969741824860    0.95901527922602
O          -1.13346752362850   -0.74531172092692   -0.20810830598463
O           0.73862421096233   -0.16164830823503    1.21406216947504
O          -1.03926025095162   -1.57556168857055    2.07459231577216
O           0.47673880124122   -2.44351031472255    0.42239950389810
O          -2.04119066796243    2.64945339050940    1.16844252702929
H          -1.72949893440779    3.15355627986809    1.92187018396473
O           3.24317482689899   -0.18079416431251    0.30489357948033
H           3.82549846922586   -0.58583389669674    0.94963082456785
H           2.37168729388181   -0.08832674809900    0.73980338964779
O          -0.25456250309073    1.63159488235801   -0.48900537380474
H           0.40580876390463    1.36083310291906    0.16859274297985
H          -0.87039558324213    0.20575958217500   -0.42907279060625
H          -0.93123359357612    2.14732607909550    0.01461601226206
O          -2.89974031394115    0.32395841856202    2.19133474515669
H          -2.21395889857470   -0.36890791055461    2.26921242703628
H          -2.41808602568416    1.82020770039529    1.53728761476570
H          -3.64691715543804   -0.09671551699268    1.76184486163902
O           1.96176200041959   -1.75593901555305   -1.42042404972008
H           1.42637384292007   -1.14214722550928   -2.00654158240691
H           2.59979018757859   -1.18426203179412   -0.93647179234175
H           1.12935171956215   -2.19130783978207   -0.41552120402276
N           0.48044871386464   -0.06201807308735   -2.83472649024458
H          -0.43678881779369   -0.47933876818895   -2.93277713873084
H           0.80362891912525    0.21289791831139   -3.75351751296152
H           0.37393209381822    0.77573326700809   -2.27143194616627
