    26
        -50.45271156  Gyration_radius:  2.56433256813 Dipole_moment: 2.771
 S          -1.13334202886102   -0.07563834683646   -1.07811510293308
O          -0.61976046628605   -0.72015295700250   -2.34089142525093
O          -2.54698816144705    0.10703439188573   -1.16588981038937
O          -0.82268397227476   -1.10685956119500    0.04333249492112
O          -0.37590753398072    1.12647749932948   -0.78120391282046
O          -1.46146371641149    1.12518092731578    3.02785207592718
H          -1.61779232994200    2.06500558256092    3.13405299344301
O           1.93258019606894    1.75096640003936   -1.95636791500616
H           1.77133765868917    2.28489307256981   -2.73594210453350
H           1.07119333511864    1.65961010065846   -1.50159288373798
O          -3.38285619288545    0.28762015403261    1.35400871881870
H          -2.19543543343179    0.79279935511609    2.46552366062212
H          -3.14915432482398    0.31000790898141    0.40462233810959
H          -3.76011290066302   -0.58047124496772    1.50832582878233
O           0.60339020988849    0.35242406276634    1.57307207190256
H          -0.23806231583674   -0.64376536624323    0.72581333340821
H           0.52273700149078    1.00593344908169    0.86009999412298
H          -0.05936633072438    0.62315586332349    2.25490627665861
O           1.83380318400124   -0.90110689691747   -2.19384240930217
H           2.08484109398285    0.04993765854439   -2.17032753380325
H           2.03897707397317   -1.26674637796588   -1.28216663269378
H           0.46428459938952   -0.84459736004497   -2.31119273750905
N           2.25462143873754   -1.77152865129292    0.28163986565800
H           2.02103786201700   -1.00571751100908    0.90572986372816
H           3.17624394904512   -2.11023807726267    0.52666162151682
H           1.58787809518670   -2.51422409535901    0.45189135021065
