    26
        -50.45271279  Gyration_radius:  2.56219279146 Dipole_moment: 2.808
 S           1.15887497728912   -0.20482663494751   -1.03612521744979
O           1.83429210286961    0.53322191223013   -2.05523537456199
O          -0.23266511856770   -0.50739672990986   -1.31667528978797
O           1.91904049699206   -1.47027475928212   -0.72877460498154
O           1.19743437414658    0.60753652518993    0.28944579421680
O          -1.39786603480926    3.20009895657457   -0.59423165056733
H          -2.00734449586241    3.29220112373362   -1.32837009971831
O          -1.37962849469457   -2.85105873932251   -0.77693486650919
H          -1.05844870487338   -1.97560312211929   -1.07288902467801
H          -1.31332917339286   -3.43386383318228   -1.53507489236426
O          -1.30580536731303    0.89030607964255    0.68310710890281
H          -1.45250343827822    1.80393072693308    0.33487157292654
H          -1.39440769580864    0.30391697164399   -0.08505223910772
H           0.24004086947226    0.77881016379373    0.56641119729349
O           1.03221844343764    3.04848730518546   -1.71831163812476
H          -0.49811937065647    3.20794943334945   -0.98927754617070
H           1.76505768916345    3.43208026787484   -1.23313133276658
H           1.31845560430333    2.14542150635534   -1.96101545556345
O           0.65251295448637   -2.76289771737277    0.94447488948833
H          -0.16354468421569   -2.96989708779985    0.43534165745178
H           1.40709837796443   -2.06614062573904    0.02887815184785
H           0.37825927068888   -2.11475540598245    1.65965538099741
N          -0.10709326988821   -0.93502886733496    2.71826276811965
H          -0.80741427903637   -0.35799521376858    2.26318938715661
H           0.69622174576298   -0.34686796170437    2.90230537891538
H          -0.48133679916111   -1.24735428395749    3.60515595507523
