    26
        -50.45271229  Gyration_radius:  2.56311609052 Dipole_moment: 2.789
 S           1.52656762197769    0.07201682728759   -0.34676592916781
O           0.76004083949861   -1.10049137102895    0.32853705634348
O           0.53346191660879    0.98775382371034   -0.87790721187254
O           2.29223320302970    0.72330008005361    0.77703097480678
O           2.43575242259222   -0.45899350164614   -1.31162309454863
O          -1.57901229798565   -1.92497325553352   -2.52144236422346
H          -1.77885303678357   -1.49539357447282   -3.35474451706930
O          -0.21490888073745    3.23493955317072    0.34242800523417
H           0.01756454398093    2.47211661612456   -0.22438663036171
H           0.32450802309659    3.96857202158926    0.04297304966423
O           0.68167215875611    1.72814653466593    2.34863183977479
H           0.27060996248679    2.41334527516063    1.77443657909502
H          -0.02850396480501    1.03806020529247    2.51106653920133
H           1.61744907279168    1.16243086210831    1.51447751325479
O          -1.62493063990737   -0.47047904001272   -0.31739239353317
H          -0.22531887953269   -0.95852730683146    0.15173209229903
H          -1.21093547922939    0.33197277659879   -0.67328207931734
H          -1.77472969238555   -1.05770642791762   -1.09855783350884
O           1.06685242776290   -2.35742800973277   -2.57727991993592
H          -0.62210341299035   -2.14598945277378   -2.55547488762353
H           1.61324787205574   -1.62993069562306   -2.21842896347370
H           1.39339902025572   -3.15759750707782   -2.16172572595429
N          -1.19284455634004   -0.13669617206244    2.61626787348723
H          -0.71675858908591   -1.02228470242157    2.73532141448568
H          -1.69411657407208   -0.17791338658940    1.73450087627567
H          -1.87034308102754   -0.03825016188274    3.36160775656077
