    26
        -50.45271024  Gyration_radius:  2.5651614888 Dipole_moment: 2.758
 S           0.72393814308529    1.13845607268636   -0.79473083511972
O           1.38185668283112    0.01453129656289    0.05450138360326
O           0.96091594929581    0.72347536572294   -2.22488841894128
O          -0.69643963672401    1.13031707857932   -0.49556949969442
O           1.38930746290009    2.37425455552713   -0.53047482757103
O          -0.09831037729958    0.93865593397756    3.41625169225285
H          -0.78511255821274    1.54060237429065    3.70766999480997
O          -2.53179514369851   -0.02236284415171   -2.04476763080577
H          -1.96224483054445    0.48202407829685   -1.42956828304979
H          -2.87762738782323    0.61205842166529   -2.67464702703843
O          -0.30372403755585   -1.34567615399076   -2.66533505240435
H          -1.22623724771468   -1.02351331457178   -2.55024908998151
H           0.43851021047351   -0.20551126038464   -2.46046575290768
H          -0.12367477760060   -1.95927094653742   -1.89208034351322
O          -0.63907344798992   -0.71398055424971    1.42785568440099
H          -0.48331368767466   -0.22964046859690    2.27557078531569
H          -1.12457948144204   -0.09363246966010    0.86105218719229
H           0.66289982222446   -0.37318958424625    0.65059015086480
O           1.66700506819449    2.48081206242186    2.11327818982822
H           0.58588478210986    1.49884612873857    2.98775623123983
H           2.59925250410571    2.28948969772665    2.23197351470372
H           1.53157576364831    2.55171251632106    1.14713364738869
N           0.16576910195815   -2.83429240587634   -0.51443383617726
H           1.15492488667139   -2.75369811579772   -0.31373676873357
H          -0.07409729478555   -3.81716741081663   -0.53852343871149
H          -0.33561049133794   -2.40330007434871    0.25583733277978
