    26
        -50.45271225  Gyration_radius:  2.56332546096 Dipole_moment: 2.793
 S           0.97366194124166    1.01034414435727   -0.69827424825822
O           1.03326482250253   -0.54323422625854   -0.73111424651736
O           1.24289581618816    1.51535415286707   -2.00672985316434
O          -0.31828323810357    1.38147733996937   -0.15050226735962
O           2.07859563055189    1.41349604496210    0.24529323606048
O          -2.26422174209887   -1.17356913086658   -2.46018696201638
H          -3.00337054695972   -0.61148710955687   -2.69821609664786
O          -0.69916591510193    2.11224247684309    2.38336764835941
H          -0.67530617971956    1.91757245599381    1.42484563792923
H          -0.61722784730223    3.06353941808816    2.46809481333134
O           1.50875252837966    0.62597717965341    2.51021053005970
H           1.88176436371508    1.06328303409012    1.25991724725053
H           0.69886113580260    1.15552793717538    2.68825446461586
H           1.20429742479416   -0.32530853132396    2.41479266157773
O          -0.13261391138075   -0.06297524257776   -3.64921263440009
H           0.54566147571392   -0.65419284162486   -3.98102194259729
H          -1.48667133021462   -0.81288220525165   -2.94094646612515
H           0.33785206715521    0.60733899347583   -3.11452825146415
O          -1.34745167661132   -1.07095263716733    0.01465889229654
H          -1.41375322934016   -0.11174266810675    0.14666269262345
H          -1.78600860691420   -1.24790042476270   -0.85356335889073
H           0.12898269620650   -0.88614108960305   -0.43614261595163
N           0.62045119789133   -1.84839539989541    2.11890623365515
H          -0.27355478803036   -1.76773196270067    1.64478915317326
H           0.49968734195006   -2.45179618001204    2.92233521106968
H           1.26290057951417   -2.29784349789662    1.47831052132833
