    26
        -50.45271281  Gyration_radius:  2.56213706803 Dipole_moment: 2.805
 S          -1.50280281727437   -0.39688396317110    0.19908572685391
O          -1.05433723221017    0.59164684021363   -0.76447886078690
O          -2.62347367831216   -0.00306230003717    0.99186483489984
O          -1.79529758067015   -1.70574648941421   -0.49004566101572
O          -0.30139484137704   -0.70718110085245    1.13653588411793
O           0.61837922078843    2.84562187825394    2.01846901837048
H           0.32329880631590    3.69663294339738    1.69037994695408
O          -0.29259694860513   -0.00014838426343   -3.24807376649723
H          -1.04012553163857    0.05757785645102   -3.84530602462527
H          -0.60086138314588    0.34488870747545   -2.38598865818150
O           0.11741291981866   -2.28131292715111   -1.93379244567681
H          -0.96227743538690   -2.01556558621525   -1.12392499975598
H           0.08537836200969   -1.54108431058543   -2.58117926572622
H           0.94462411389010   -2.13591490057568   -1.38477316654177
O          -1.60999079963070    1.60821709700765    2.85199509477152
H          -1.53209606561198    1.02278179646836    3.60757262733992
H          -0.18075226600073    2.40781785349788    2.38647313435117
H          -2.07589459550612    1.09264939344073    2.16382527442097
O           1.36589147142301    1.01491668486889    0.26768524863800
H           1.26044358634539    1.73785175053100    0.93382689778785
H           0.45089846860865   -0.08204566482712    0.87975323230213
H           0.68981595380705    1.18524622409451   -0.40740944900366
N           2.23727046067599   -1.75731056365721   -0.41862862907548
H           2.04717674905024   -2.13824816268582    0.49998995906024
H           2.28834185585095   -0.74792242117735   -0.32369037551133
H           3.14296923688196   -2.09342227102158   -0.72016556745227
