    26
        -50.45271214  Gyration_radius:  2.56359872929 Dipole_moment: 2.792
 S          -1.11572873760744   -0.21271387801314    1.07975764676174
O          -0.14283239879974    0.86351747878127    1.12444508398276
O          -2.44132447231552    0.29948922144619    0.57552178450692
O          -0.64379064105797   -1.21807928402948   -0.00877491506767
O          -1.30074313819947   -0.91134467272070    2.31153998654082
O           2.92741047673126   -1.63277077731235    1.15117335898210
H           3.46689452661376   -1.18628150398463    1.80579312964757
O          -0.48769414012013    3.22296729021799   -0.06474846324058
H          -0.89764199705789    3.84155651290836    0.54200358617148
H          -0.27340488981036    2.42434063770717    0.45816126249675
O           0.79637399494890   -2.53759983396353    2.50412865439007
H           2.17307859306145   -2.02297229929683    1.64565812157322
H           0.04008658837857   -1.91904919626674    2.54915420182327
H           0.42756483639501   -3.38057438174751    2.23410503079457
O          -2.05380327655886    1.59901754712108   -1.48253800853533
H          -1.51415081867397    2.34192244791728   -1.12906791472243
H          -1.43578021046866    1.05316820942193   -2.05423077331877
H          -2.32270969701769    0.86220600791613   -0.35204445998913
O           1.60290469633174   -0.16906794928537   -0.60377987972924
H           1.31866121375443    0.54021983048618   -0.00542622438254
H           2.22278540626914   -0.72784558620472   -0.07375733988151
H           0.25542460524783   -0.89971836014514   -0.34403701561591
N          -0.33186408351192    0.11372304728441   -2.85858362187720
H          -0.16157655121714    0.34467223761014   -3.82907269355448
H          -0.66089306984640   -0.84272209708660   -2.81310872178138
H           0.55275318455056    0.15393934113721   -2.36227179605112
