    26
        -50.46654165  Gyration_radius:  2.46931382401 Dipole_moment: 5.993
 S          -0.31427568121447    0.70401219137328   -0.83926486087518
O          -1.50976715940693   -0.05164640440238   -0.52739176323029
O          -0.54141895401690    1.54152972109079   -2.11606740117704
O          -0.00622727486412    1.68688779342842    0.20978555467840
O           0.84057747461697   -0.17001464616956   -1.05794290519922
O           1.73104067443747   -1.39473178880078    1.11116925950347
H           1.89945804678054   -0.06266127745798    1.69329795252699
H           1.57382911230627   -1.10515211235349    0.18635011275080
O          -0.61897612491140   -2.09550128743006   -2.14685813163557
H          -1.38409881734275   -1.97830951398576   -1.57329732153474
H           0.06619753706546   -1.52180514245424   -1.74880916082752
O          -0.95358507417722    1.32227271109897    2.67818541773654
H          -0.77517153944905    1.53143045796810    1.73636663080701
H          -1.84757893102297    1.62017779799603    2.85144647097988
O          -0.99348613122926   -0.22609332738683   -3.95594922591004
H          -0.93891596865027   -1.04509837986168   -3.39836852079122
H          -0.78026864275401    0.90581346891239   -2.84654579593800
H          -0.24543631738478   -0.25886064677372   -4.55602936533725
O          -0.82535728713998   -1.29446753808186    1.72245897585280
H          -0.93389919022369   -0.55170800813049    2.33532300865705
H          -1.17741237720904   -0.95819388924298    0.87328979295347
H           0.82140772263738   -1.61673036466835    1.43308590578153
N           1.79485733468159    1.01203229354428    1.95260967120696
H           1.19272393641224    1.39400955562296    1.15842650723338
H           2.68333620599976    1.49531871451633    2.02109934864611
H           1.24244743600666    1.11748959165773    2.80362983317784
