    26
        -50.45271289  Gyration_radius:  2.56171428213 Dipole_moment: 2.811
 S          -0.40806049180812   -1.51320981779087    0.04300036849956
O          -1.75737189114253   -1.71031224491016   -0.60058273427094
O           0.18754057131720   -2.78065583483645    0.32291605410595
O           0.43848745009904   -0.78178067512320   -1.03733883947758
O          -0.51779195056585   -0.62087340954369    1.18244318326172
O           3.34347251120793    0.22396933745277    1.14801453213786
H           3.49397112197073    0.18037408577460    2.09374066211274
O          -2.65030008612036    0.89786128460336    1.67777937621166
H          -3.26472239126599    0.42984091265050    2.24547965181375
H          -1.84181761605317    0.34861872853982    1.63407328611838
O          -2.79020864684658    0.49950056007582   -0.95323089856263
H          -2.08287295370864    1.08524986820552   -1.35753637223656
H          -2.24449377699019   -0.75402130138608   -0.79974148597939
H          -2.89663218067328    0.80161181841144   -0.02292248387805
O           1.09365409208248    1.30078732141195    0.27976632920900
H           0.49795330330779    0.94207083505993    0.95669852949038
H           2.00527420490250    1.06004616943815    0.57725003423120
H           0.75599432686885    0.08905991784469   -0.63306197342646
O           2.80341089971246   -2.29633571316145    0.40813540926178
H           3.20820188706482   -0.70409097020375    0.85425208689970
H           1.86089715109941   -2.54965360061137    0.47063674686979
H           3.08778036843590   -2.56669219449349   -0.46697463415449
N          -0.80695443927152    1.98189486468719   -1.91936244919602
H          -0.33375320769289    1.42496027625438   -2.62010588523170
H          -0.15296138051365    2.13008583676249   -1.15723919382207
H          -1.02869684529387    2.88169395487730   -2.32608931004474
