    26
        -50.45271218  Gyration_radius:  2.56347791315 Dipole_moment: 2.795
 S          -0.51226085281982    1.37649062553052    0.54579408868966
O          -0.30434164208139    1.09273033954461   -0.86240759509045
O           0.14272226276817    0.21945347496668    1.35248377122540
O           0.02336171475876    2.62122946465038    0.99671053953310
O          -1.97884008504117    1.29484533884876    0.88605680490805
O           3.52083922283732    0.22807470532818   -0.33625258688978
H           3.87303795576629    0.67472068651442   -1.10786586082060
O          -2.15673532298169    0.01559531617755   -2.44627600139988
H          -2.67136225183825    0.70537989455638   -2.86845676764179
H          -1.42144715022596    0.46440970617352   -1.98254166962421
O          -2.88307182802429   -0.81127457274925   -0.01970834221850
H          -2.41897039677305    0.36321373643366    0.52548471200174
H          -2.76567369987301   -0.65906008625744   -0.98465668068886
H          -2.23237875078945   -1.53322212409433    0.22982282454932
O           2.63571840963732    2.19103306873013    1.26227893546958
H           3.24972144840389    0.93917171480716    0.28542009196385
H           1.70484409639764    2.45437381249084    1.11862448516701
H           2.72765806292979    2.06499445471097    2.20843516809046
O           1.22940761478297   -1.06556974592758   -0.56330103998788
H           0.60872732803498   -0.38480763685309    0.68917027166693
H           0.76442580398790   -0.42557968988106   -1.12550272077628
H           2.16133779688465   -0.73992620541582   -0.50903950971753
N          -1.03617070614582   -2.61740330943030    0.60525367788760
H          -0.77064883937517   -2.45160173199614    1.56809485401407
H          -0.22457101284705   -2.41938649946611    0.02855361071209
H          -1.26532919822002   -3.59788471754150    0.50382492914692
