    26
        -50.45271270  Gyration_radius:  2.56235105287 Dipole_moment: 2.800
 S           0.32890844839565    0.13005105669067   -1.52637518352966
O           1.19197701469724    0.88225050015104   -2.38011457148637
O          -0.49046838146326    1.11098406347705   -0.64058724469487
O          -0.70608799736930   -0.59339315234248   -2.35034870538122
O           1.00235724818863   -0.79669564756121   -0.63505122518326
O           2.25871104848884    2.09209671869149    1.75435257502323
H           3.14916722748084    1.76671348876116    1.89632327559160
O           0.12111619849609   -3.25671535795071   -0.11525906898094
H           0.50997718853453   -3.88290139574538   -0.72804127139529
H           0.57134368495685   -2.40215127468951   -0.27124678799293
O           0.28257457034089    0.34235851877326    1.66410742203503
H           0.97644361306511    1.01618490531572    1.86919875760264
H          -0.27622802036431    0.89671316759307    0.32426112872834
H           0.73960825680506   -0.35695894180216    1.17022281676772
O          -2.09282539108727   -1.96648285008939   -0.84523949666407
H          -2.33757422992030   -1.38109727046772   -0.06782592151068
H          -1.36278160138297   -1.19764726871529   -1.72140104097561
H          -1.42106547187478   -2.60157274855473   -0.50836286189678
O           2.18112848115918    2.80561920391469   -0.82937866798862
H           2.23602412249892    2.41693835182584    0.82718504093412
H           1.92780846392549    2.09087010149287   -1.44696957574779
H           1.63384456519614    3.55759926228418   -1.06331920863203
N          -2.58464363089395   -0.35539909662595    1.21042015491220
H          -2.83405170581447    0.54751510776235    0.82616268997265
H          -1.70840074790973   -0.24085159311539    1.70997178873479
H          -3.29686294421522   -0.62402786905286    1.87731517175303
