    26
        -50.45271286  Gyration_radius:  2.56173332905 Dipole_moment: 2.806
 S          -0.79538727011187   -0.17353446012314   -1.33854429255363
O          -0.56918489290229   -0.62955159720521   -2.67284578052324
O          -0.08952398712251    1.04207468825425   -0.97703249234876
O          -2.27465874085972   -0.01336600486910   -1.09405462123938
O          -0.35069645833204   -1.28063999019799   -0.34098187120799
O           3.38004621286487   -0.82275003226420   -0.66892506116815
H           3.91773411736899   -0.16307143298577   -1.11010485660626
O          -1.16687309747003    3.01146588763046    0.45800263721958
H          -1.56720868081043    3.66176539593625   -0.12136276376652
H          -0.68499704702714    2.38627827477507   -0.12007794153683
O          -2.60428765863264    0.88609932884213    1.17683661414741
H          -2.17610425201990    1.76742684935842    1.08748487709140
H          -2.47197611243899    0.36046493378936   -0.08770719613230
H          -2.01378588328601    0.34987407729094    1.78564812907266
O           1.44846268083836   -0.00067944186180    0.93348926930429
H           0.37199962214655   -0.88514890642508    0.24570136870343
H           2.26803433315592   -0.32243302129628    0.48366343083670
H           1.14575389665503    0.75668140811501    0.40759430738701
O           1.80254056805759   -1.83423702897772   -2.58709280420260
H           0.96516373325543   -1.34876819638463   -2.72694799353081
H           2.84281533814163   -1.24694171525197   -1.37403699139810
H           1.55838472416321   -2.75880977243558   -2.51428242682336
N          -0.92224357369350   -0.52967422389555    2.67034380645024
H          -1.02024435382417   -1.49772435931898    2.39031826022187
H          -1.00925179567795   -0.48043140481580    3.67741820575869
H           0.01548858758077   -0.23436923574616    2.41749619686650
