    26
        -50.45271276  Gyration_radius:  2.56225572556 Dipole_moment: 2.802
 S          -0.28697792291332    1.37584374931875    0.69372432342787
O           0.96882880656305    2.20877418578419    0.74727540798265
O          -1.31760774225645    1.99939574368809    1.46090676461139
O          -0.63890192416929    1.08134899639907   -0.68332707713669
O           0.10544181037111    0.03082545153695    1.36867377427064
O          -2.91432045547768   -1.98469380578101    0.33795119664511
H          -3.64472434276870   -1.81096979007322   -0.25809527535269
O           1.01030539180394    1.44198978814863   -2.74469162776094
H           0.30105894612308    1.32233276214208   -2.08148431467276
H           0.88777559056196    2.31685297448343   -3.11674477342291
O          -2.97337217810278    0.02158108391917    2.11624836905074
H          -2.46369105212927    0.81529783482245    1.85815195093078
H          -2.96384191737116   -1.29133984778463    1.03261388344793
H          -2.70606843625051   -0.17827752209370    3.01525852394121
O           2.67520801266544    1.15354562168427   -0.68429050748378
H           1.76446322102627    1.76560762369542    0.14572748635209
H           2.66972364502525    0.17497024211504   -0.46268790403481
H           2.24865983915724    1.23625834457778   -1.56704747094957
O          -0.45502333311053   -1.57316175908177   -0.53232353769037
H          -0.06314155776275   -0.70492614884634    0.69567385561034
H          -1.34667426749966   -1.89695350586720   -0.25368775446634
H          -0.62149486491024   -0.76169586565372   -1.03791486218264
N           2.49380083062292   -1.43078802046821   -0.09014578788054
H           2.43456228885875   -1.50072252711257    0.91817904566299
H           3.22534707815597   -2.05323216164652   -0.40886337561016
H           1.61066453373047   -1.75786341788801   -0.46908031332131
