    26
        -50.45059451  Gyration_radius:  2.46317938387 Dipole_moment: 4.137
 S           1.11733773464978    0.41752890798008    1.60646829593370
O           2.26249538418334    0.38033201934767    0.58073023324859
O           0.01819954882973    1.16816948388491    1.03005574436239
O           0.67901316620252   -1.07017861019927    1.70027345279370
O           1.56708497577375    0.85590099604904    2.87402791344472
O          -0.52207389488036   -0.38830560181279   -2.16002420686220
H          -1.00285054233385   -0.53203313361847   -2.97558151262340
O           0.40790564619053    3.39392825025292   -0.40550383425040
H           0.89803343075174    4.02629229111083    0.12213260454472
H           0.10379290253052    2.69736011652126    0.20711172466336
O          -2.13400867255388    0.11370211139930   -0.23364405734327
H          -1.21309085519325   -0.16886447656656   -1.45181892446991
H          -2.26082077452402   -0.72246047050343    0.27245648253453
H          -1.51060543128447    0.63585034078302    0.29945633098289
O           1.52912586350896    1.30381957752817   -1.62775256646516
H           0.76576483483065    0.76672956134485   -1.92205063755843
H           1.16001020288506    2.17858290473260   -1.37455292514459
H           1.97397232090270    0.77597218972350   -0.34352765280945
O           1.08143416274675   -1.93111540894054   -0.68474758734433
H           0.80384262215134   -1.46485425502980    0.78295638718970
H           0.46990842671343   -1.46080047898745   -1.29426823271169
H           1.96581527083314   -1.61106292758533   -0.88366454817476
N          -2.10887331585648   -2.14450386774673    1.29378198108565
H          -1.96433163416351   -3.02720102638845    0.81984150773081
H          -2.83740705419679   -2.27642745946250    1.98384152245293
H          -1.24967432869944   -1.91636100381630    1.78400248478846
