    26
        -50.46224018  Gyration_radius:  2.54844568476 Dipole_moment: 4.825
 S          -0.98656616904205   -0.01519664452229   -0.67229437807065
O          -0.09582804590992    0.63481923529072   -1.64959965644381
O          -2.33321950508935    0.74667508907556   -0.82432583168680
O          -1.19892987156409   -1.41908337822369   -0.95754088804663
O          -0.49709392683111    0.20729627289335    0.68370931518478
O           3.18021939173969   -0.63516408756786    0.58033145635543
H           3.38852847344334   -1.40205252421684    1.11574370168480
O          -1.86527097377843   -1.98618900521744    1.53190600683733
H          -1.61062659161105   -2.07084585312189    0.59197867332543
H          -1.32619457896430   -1.24214575949376    1.82995028503833
O           1.69599045954330    1.35961208070857    1.51582933646176
H           0.81933511093271    0.92390552733511    1.39970180680292
H           2.34690211357917    0.64720287340269    1.31263194514791
H           1.63981280644803    2.10127265240563    0.27674332836359
O          -3.96503354791137   -0.65515244878077    0.63957841482380
H          -4.42128610573741   -1.26552481251834    0.05614364159452
H          -3.29638089991322   -1.19597414277182    1.13212749200354
H          -3.00785480485958    0.28438196204934   -0.25447759556323
O           1.51598029289907   -1.47149387020263   -1.35152006477069
H           0.77568038922688   -2.05281922329566   -1.14228793620988
H           1.07135413381377   -0.67253520128797   -1.68091807572263
H           2.61915851047300   -0.96342457922107   -0.15843185662642
N           1.45303469858998    2.48450296850145   -0.75658766308535
H           1.02080755041202    3.40202246082769   -0.74333214204670
H           0.76752799667244    1.75843291593027   -1.17452493205037
H           2.30995311337320    2.49747749201604   -1.30053439334180
