    26
        -50.46224016  Gyration_radius:  2.54829569173 Dipole_moment: 4.829
 S          -0.81836668729152   -0.43131782166044   -0.75442050997158
O          -0.90359389126391   -1.17309720720717   -2.11815464037717
O          -1.88558921317726   -0.89563701183131    0.10749121376964
O           0.50180483534514   -0.68550714074798   -0.18850234645728
O          -0.95511369453993    0.99145398691230   -1.11220709049971
O           1.02440459622715    2.00540769236273    2.40377298667376
H           1.07364044620916    1.64633940232580    3.29077897250431
O          -0.46235410964991   -2.90779161555747    1.05067152909806
H           0.34184906473694   -2.40240013266500    0.87510202510555
H          -1.16535679717487   -2.24028249541520    0.92533409911834
O          -1.42903550516282    1.43850633891798    1.47598174450630
H          -1.36881869425133    1.51440085946290    0.50895318328535
H          -1.80651735934541    0.55920982854113    1.59461065366040
H           0.10353304383930    1.84526890910913    2.09606763974320
O           2.43135283527924    0.97587895815831    0.39931714659762
H           1.86613664685311    1.81707481819324   -0.63068696186580
H           2.06590786573918    1.37039944865621    1.22595761684005
H           1.84206104254973    0.20603373117040    0.22025943223943
O          -1.02648134122038   -3.67480748542014   -1.41332152250188
H          -0.75007894674030   -3.57731842420802   -0.46668193610015
H          -1.95388721548294   -3.92109261890732   -1.39454630892177
H          -0.91611940720937   -2.15170730459881   -1.92888543142846
N           1.22248674709147    2.33355276261720   -1.38484784950231
H           1.61847261264479    2.27672074764342   -2.31691998949231
H           1.05699346342728    3.29984324877149   -1.12173688988201
H           0.29266964257607    1.78086852539529   -1.34338677618545
