    26
        -50.46224027  Gyration_radius:  2.54853220572 Dipole_moment: 4.825
 S          -0.92783060104216    0.73360806746474    0.15500496182254
O          -1.87593985720927    1.23305850014420    1.28139481894044
O           0.29589925960439    0.24755108920325    0.78269144098383
O          -1.66365476700554   -0.38389163294822   -0.46209991991177
O          -0.67798669349064    1.81759308624171   -0.77232406657775
O           1.95147766855050   -1.94296590920408   -1.80772802692920
H           2.78538052471570   -1.57628399787106   -2.10496410259390
O           1.36688854852884    2.74305036997221    0.61552879298699
H           1.51856972829544    1.85266516094091    0.95787266775247
H           0.71742185726027    2.58925677342408   -0.09859661431708
O          -0.71619572195320    3.41605428052249    2.09390275936334
H           0.16777770179182    3.28379066446419    1.66601512674708
H          -1.12820278679997    4.14811320517178    1.62980777386329
H          -1.47303614919743    2.05706848715196    1.67162037556537
O           0.04611470937172   -0.18567952199573   -2.50152324673699
H           0.17298704494307    0.75798112378863   -2.34922517972215
H           1.25477222430637   -1.32193168142959   -2.11972244572009
H          -0.71891054489404   -0.39008388248628   -1.93800325947270
O           1.35784651254241   -2.14028301382462    0.77405051370188
H           0.00668018439090   -2.61600452438525    0.58526526711554
H           1.72415878581672   -2.15758565496429   -0.14143801140034
H           1.10326961544489   -1.19804685249316    0.91294155557809
N          -1.07907621723563   -2.75181855842797    0.35604163722949
H          -1.60230561308732   -3.03700653506147    1.17683783390368
H          -1.21138912896168   -3.41231196587590   -0.40328027500533
H          -1.39471626456987   -1.76589709741365    0.03992962276417
