    26
        -50.46224026  Gyration_radius:  2.54832941572 Dipole_moment: 4.826
 S          -1.01300918143304    0.60066000271420    0.19231276141776
O          -2.19652052383149    0.64961283704356    1.19930464839625
O           0.12093057571903   -0.02432419396298    0.86413728887939
O          -1.50350698916399   -0.26581770702534   -0.89383612603910
O          -0.71437906621454    1.94473297135448   -0.25677120823904
O           2.43902606706105   -1.13251233597152   -1.90083704689976
H           3.26969459787417   -0.65512010717087   -1.88410457630447
O           0.93769604818475    2.41580802769345    1.74654201155472
H           0.44832074465216    2.49180666123421    0.90387301627357
H           1.11613783018871    1.46809268736775    1.80179052730471
O          -1.43810193506600    2.46676605015311    2.90013911219004
H          -0.48213405762638    2.52089452946375    2.64481662381982
H          -1.83296440263886    3.29713362099703    2.62515598143250
H          -1.95959317560369    1.30572078114143    1.91141737038944
O           0.51596439691827    0.68196501257380   -2.35854098106626
H           0.51308208936896    1.52060743485532   -1.88263604696594
H           1.74868222506661   -0.46930457897466   -2.12886243034708
H          -0.31247902207626    0.26825445720614   -2.06342408654220
O           1.41352875778244   -2.22296445327100    0.29377232837178
H           0.17637288339421   -2.65626747839708   -0.31429901322907
H           1.93888652438177   -1.91219340634829   -0.48083690679458
H           1.04003186929406   -1.39544098366645    0.67792666255849
N          -0.82947160205141   -2.74650357100284   -0.79377045294768
H          -1.18496886340196   -1.72467611393017   -0.82748740013373
H          -1.45959374505893   -3.31494395928504   -0.23823424197890
H          -0.75163208573181   -3.11198619479960   -1.73754782508311
