    26
        -50.46224034  Gyration_radius:  2.54837530653 Dipole_moment: 4.824
 S          -0.43994733968344   -0.51414394445556   -0.98336603324052
O          -0.69606362716773   -0.29835929481731    0.43643742445287
O          -0.87359671407167    0.60287929850341   -1.79680065121813
O           0.97606183535252   -0.85889450722530   -1.19995529377161
O          -1.21024407713816   -1.79260076241648   -1.41818776916535
O           2.04517712796795    2.02233694606160    1.60443268679040
H           1.70174801081188    2.87561308850433    1.87302512343615
O          -2.87970136238759    1.19794434835314   -0.18871335660158
H          -2.20866424339527    1.24218838656868   -0.89800509213028
H          -2.38560463827945    0.80893275717413    0.54452161408157
O          -3.69475521372477   -1.02069312858725   -1.36806421053295
H          -3.93128350370045   -0.75946190941911   -2.26074279191545
H          -2.18421887094799   -1.58306317694639   -1.38629533402304
H          -3.57952698616545   -0.17885831874888   -0.85806306287741
O           1.48724461016650    1.75323449382108   -1.00605899527930
H           0.61397283319981    1.98310722435284   -1.34436580706559
H           1.88981695241685    1.95956126944698    0.63469746748153
H           1.54126488824184    0.80051949187576   -1.19031625218221
O           0.96082219744769   -0.24771488654300    2.45679194474711
H           0.19253852983983   -0.25620511856844    1.83907221015406
H           1.78498878652793   -1.12176771287994    1.65454257233716
H           1.37583114778562    0.63518789109409    2.31188709364592
N           2.29118088189806   -1.70238251274467    0.84404805009440
H           3.26464677712752   -1.42937748108808    0.75376210525531
H           1.74859659743284   -1.41564415285617   -0.04748270596393
H           2.20971542012547   -2.70233829845669    0.99319907354208
