    26
        -50.46224025  Gyration_radius:  2.54854901838 Dipole_moment: 4.822
 S          -0.83168450549771   -0.52791247442697    0.67419033185555
O          -1.73080875248363    0.54919367293475    1.03311694179619
O          -1.58534470913931   -1.88283621232550    0.78970550078774
O          -0.33779359628267   -0.40548546689481   -0.69288613619815
O           0.29511680945622   -0.66466365795425    1.61370719012631
O           2.37300108619761    2.21757256495740   -0.55278281395779
H           2.13734555463463    3.00390173275198   -1.04705875468263
O          -2.66808555389252    0.79582098321356   -1.42113937883738
H          -2.46597893151722    0.95896935753335   -0.47875511538086
H          -1.83106267731391    0.45285884673150   -1.75982725910069
O           0.57539688283550    1.98263046392230    1.42526156823794
H           0.61809390130952    1.05507652277064    1.71224017100463
H           1.74564462421915    2.17399944301836    0.20416982029742
H          -0.36458694752270    2.10481664203011    1.24844257608478
O          -3.74872594364724   -1.46843819524183   -0.59550235589864
H          -4.43823977911033   -1.20976082917452    0.01987601332636
H          -3.47138898369871   -0.63823410227302   -1.06024056907398
H          -2.41791571648411   -1.81300596319820    0.24607531383111
O           2.10964845558280   -0.21423876679139   -1.58895434967294
H           2.48191069885862   -0.93150276290145   -0.39125542247404
H           1.13786652132628   -0.30215819541274   -1.44821177307930
H           2.30309499115346    0.72271253528239   -1.34968772144736
N           2.55097138506816   -1.40178234575195    0.62064952095507
H           2.65605511642375   -2.40875405443675    0.55921096392858
H           1.60123850505969   -1.15593206371815    1.07798319285637
H           3.30623153440365   -0.99284767462917    1.16167251473958
