    26
        -50.46224023  Gyration_radius:  2.5485348278 Dipole_moment: 4.826
 S           0.64853227035641    0.94873073329080   -0.32275901500040
O           0.10256600406773   -0.31484194579032   -0.80563898526894
O          -0.35734740054686    1.66551766213315    0.48063727842453
O           1.90312959926995    0.77370702514613    0.37930660221060
O           0.87578853983744    1.87155860206068   -1.55317687862134
O          -1.46581826789075   -1.95327486603455    2.21171222388485
H          -1.01365703076032   -2.76161556347619    2.45726409093172
O           2.62719427022894   -1.28565406679544   -1.10291602621001
H           2.58741765917411   -0.61539105151442   -0.39247720877928
H           1.69473525116734   -1.48422478724942   -1.25780942868737
O          -2.18893089322934   -1.46341577495756   -0.29700062969905
H          -1.30388140819601   -1.17947520975253   -0.62569824045823
H          -2.01109191550455   -1.79623288464140    0.61414345114826
H          -2.67645360772682   -0.12489766656011   -0.05736902588823
O           0.31021469178145    0.03872944332076    2.48835660714866
H          -0.82570252611013   -1.22358068201958    2.37390556130889
H           1.20998212318953   -0.05870512935855    2.15559633445423
H          -0.03390265381268    0.77518795751951    1.95570019228866
O           2.90313404928864    0.76180947222638   -2.74870465551197
H           3.69453755946211    1.21770381150301   -2.45394384934501
H           2.89694109951024   -0.10895643452645   -2.27557328222347
H           1.62313926030898    1.48442099627906   -2.08721298628895
N          -2.81184653066884    0.96300747210158    0.16256944906881
H          -3.27471223639427    1.44450770416019   -0.60079216882270
H          -1.79794429349551    1.32645692076575    0.26887133336545
H          -3.31602360335202    1.09892826219758    1.03300927661804
