    26
        -50.46224032  Gyration_radius:  2.54838548027 Dipole_moment: 4.825
 S           0.97899801781761   -0.52563821191015    0.43620497113080
O           2.06793418175680    0.14959239139024   -0.23905301906350
O          -0.16964200878235   -0.73652734114482   -0.43784618124479
O           1.46699443204048   -1.91761903795955    0.92731536519494
O           0.56162318536494    0.16269862856967    1.67031053290957
O          -1.92688194106389    2.60144687817062   -0.60400637578233
H          -1.89561560395280    2.98109330348972   -1.48323641277626
O           1.50045226574453   -0.93539223957220   -2.57652532837609
H           0.57837035968437   -1.01459940310281   -2.29993830527014
H           1.88368569419853   -0.36563853608573   -1.88080651479705
O           0.61043063775519    2.42103941457500    0.24917320043641
H          -0.99865961456305    2.59551006911221   -0.27709297266326
H           0.60081339521364    1.76885969085008    0.96969358254114
H           1.29779657004332    2.07892528274875   -0.33418302777371
O          -2.64195025212214    0.07582091156070   -0.19585342887244
H          -1.78205078489054   -0.33659727322898   -0.44549562702754
H          -2.38245099090958    0.07117881632127    1.22556224677660
H          -2.53042256923391    1.02633023379877   -0.43385787667494
O           2.52576413530382   -2.95186888655497   -1.21264766564991
H           2.15647103490488   -2.32104671173413   -1.88184751515002
H           3.46900116067965   -2.77826588438377   -1.17716408246553
H           1.85575714221358   -2.39500774107590    0.14330232933067
N          -1.94277979423967    0.08192071867340    2.25338330251329
H          -2.19961378658494    0.92869522362918    2.75072473761841
H          -0.87581686810667    0.07656673766809    2.07104039646412
H          -2.20820800826686   -0.74147703411336    2.78284365873260
