    26
        -50.46224028  Gyration_radius:  2.54844768736 Dipole_moment: 4.823
 S           0.81546292572097   -0.40366701540579   -0.77287174122064
O           0.83501078277082   -1.55379914906701    0.14796269124926
O          -0.46014484599482    0.29754926002101   -0.67846450692807
O           1.94583999561816    0.48201474614129   -0.58453593382183
O           0.90171688952970   -1.04933381640098   -2.18451231377487
O          -1.06494588422688    0.78819285262756    3.01549534036094
H          -1.05018102154494    1.71372429768877    3.26306334009168
O           0.70909631749277    2.54676111856500   -1.66641519281651
H           1.35689967754080    1.99399707607331   -1.18651175581783
H          -0.13556420362776    2.16294393381457   -1.39763264090644
O          -2.47633730943816   -0.08291603145119    0.94030835662169
H          -1.84194441218382    0.19160975880823    0.23741178746418
H          -2.01582177890125   -1.45103422367379    1.00619551575503
H          -2.10584397515146    0.31075073777323    1.76508960845197
O           1.22969047663467    1.00526379265691   -3.74718369746580
H           0.98457839558957    1.72051577839328   -3.10648869564295
H           2.17209566606934    1.09993453746383   -3.90201819803690
H           0.99132295301747   -0.31185784292505   -2.84914909298220
O           1.38171100674301    0.19905763249482    2.08481604190512
H          -0.14854666131544    0.56751613326603    2.73274189310936
H           1.27611438894827   -0.61112144622876    1.55854328517993
H           1.82549406569711    0.79330800169894    1.46859424114136
N          -1.44273038255267   -2.41060430516841    0.98215199182634
H          -0.47482075161950   -2.11650465853889    0.59688138564763
H          -1.87209065437580   -3.08767359301755    0.36084349381851
H          -1.33606165047326   -2.79462759571806    1.91568477677371
