    26
        -50.46224035  Gyration_radius:  2.54849542994 Dipole_moment: 4.825
 S          -0.37229484407464    0.12024374566787    1.12706786349821
O          -0.69594533206365    0.46598479181379   -0.25259944225613
O           0.05922961160446   -1.28593117503362    1.21321330250852
O           0.58494479098679    1.03519613058380    1.71374052206353
O          -1.68993795245433    0.16157221826136    1.95109444811864
O           2.22556177765630   -0.77444260655559   -2.30104088011605
H           2.71004591802525   -0.05422552620626   -2.70693550591324
O          -0.29047369859741    3.09517984920972    0.31591245621388
H          -0.58526203930747    2.48356988445419   -0.37115277785900
H           0.25308013702547    2.52245440143712    0.89205613570043
O          -2.21796017678860    2.70633026445389    2.07952219293035
H          -1.97825544362331    1.11386333084078    2.01107227922298
H          -1.86732327544546    3.02995435760287    2.91219648111273
H          -1.59420882701845    3.02395023854775    1.37804124783640
O           2.44409806011280   -0.45178231283304    0.35338873724607
H           2.36236809093325   -0.68157573966483   -1.33089579512825
H           2.31808849381079    0.41795985501425    0.75044105067884
H           1.71845968022466   -0.96842258849072    0.74198306132183
O          -0.42225379458372   -0.92967568334747   -2.44553840283022
H          -0.55562766422063   -2.08579706090121   -1.58897829733348
H          -0.62258993807486   -0.27119695277136   -1.73984663028196
H           0.55400401223487   -0.86135791007125   -2.56782313588958
N          -0.58883380446038   -2.82053493854156   -0.74707579078894
H          -1.50909792980300   -3.23558630986147   -0.64884261270500
H          -0.35983741241406   -2.21770761823345    0.12235150612393
H           0.12002156020496   -3.53802262526646   -0.86135202351194
