    26
        -50.46224029  Gyration_radius:  2.54864500186 Dipole_moment: 4.823
 S           1.05039612757381    0.49087245083205   -0.28092130906669
O           1.43934828706336   -0.06589920873698    1.02662228449799
O           2.28567807716070    0.22469730082497   -1.18648826744724
O          -0.07704086358838   -0.25288928309526   -0.83177333527438
O           0.79688571491792    1.91580421751919   -0.22824402636325
O          -2.58950812260047   -0.48873231055996    1.97707305211559
H          -3.39272040732587   -0.00455959878857    1.78059772649548
O          -0.72002235262388    1.88557436291990   -2.38702839121958
H          -0.27137146343352    2.16746695777145   -1.56556947276420
H          -0.94619155820961    0.96565579816257   -2.19874436380761
O          -0.60265435729262    1.31277550175690    2.05221328342322
H          -0.53215139383550    1.99044162063815    1.36982062054185
H          -1.87889390341345    0.18673613601503    2.06220308057564
H           0.21776892551907    0.80577673213449    1.93228169318896
O          -1.50769234501014   -2.16738541955831    0.22550742956107
H          -2.05601193913489   -1.64029290796086    0.85332376671763
H          -1.07330199449580   -1.48847191085717   -0.34219288492846
H          -0.32757870352434   -2.46338914067668    1.00422568262194
O           1.70981765376871    1.53302317353664   -3.36084903556475
H           0.74656734228437    1.69050625060916   -3.18919635498651
H           2.13380565454487    2.39181440756356   -3.29947094490725
H           2.11939407245793    0.66905985266181   -2.06310584810696
N           0.64678043803609   -2.45622716235520    1.55272730399679
H           1.05139685306321   -1.47648892568796    1.33397464304666
H           1.27455554594357   -3.17539404873967    1.20993694184731
H           0.50274471216668   -2.55047485594000    2.55307670580326
