    26
        -50.46224039  Gyration_radius:  2.54820785714 Dipole_moment: 4.824
 S          -0.94379239476775    0.53122448697283    0.50185650508617
O          -1.33710363022807    1.87415309790713    1.17924268556590
O          -2.06927041381733    0.03669129075321   -0.26379152330877
O           0.22838496858998    0.77646031147647   -0.33114625543891
O          -0.59300207266055   -0.34903948661491    1.63009567055687
O           1.73996842555716   -2.62774273613758   -0.95247464550861
H           1.69227459740565   -2.87735575707195   -1.87636788106140
O          -1.39340446854855    1.38843374456399   -2.42726419177363
H          -1.82735573488992    0.75770228787034   -1.81966040483919
H          -0.47261264361170    1.36118186199835   -2.13670148260892
O          -0.78788924395314   -2.38140968944443   -0.08841059520424
H           0.81060016083877   -2.59926565423952   -0.62996588154994
H          -0.73980809797364   -1.83762096824746    0.71566275584289
H          -1.44064705071859   -1.91162236058207   -0.62050281230703
O           2.63119286633212   -0.24231377960515   -0.19692345628991
H           1.80691983773867    0.26306573147805   -0.38947643181174
H           2.35514206192386   -0.41400474710183    1.21047009457150
H           2.45370090946209   -1.14028226193609   -0.56415574275201
O          -2.28954802290906    3.26746233314198   -0.80125407048208
H          -3.24325184751137    3.16054458075952   -0.79349652809934
H          -1.67987795940136    2.48166208505235    0.46718863380422
H          -1.95771886850770    2.70958654906180   -1.55006749569944
N           1.90297231124650   -0.53348487088909    2.22618750311287
H           2.22093254998844    0.18764874699871    2.86466628736523
H           2.09144600828687   -1.45708550824198    2.60269952840570
H           0.84174774212861   -0.42458927789777    2.04358969451604
