    26
        -50.46224020  Gyration_radius:  2.54863989172 Dipole_moment: 4.826
 S          -1.15761865680045    0.12498731469807   -0.25617740751830
O          -1.23801105172484   -0.17508500055745   -1.67074853936472
O           0.05058585399421    0.86759176012554    0.08534575144761
O          -2.38180418927998    0.99162505526822    0.15270412988869
O          -1.27331200579894   -1.07749616552034    0.58730831987776
O           2.81537800682799   -1.70446108262481    0.15580549117303
H           3.46134436686988   -1.55607214682288   -0.53621913682581
O           0.02037876661175    2.03589441557432   -2.37193466903585
H          -0.39648299145860    1.15211127686046   -2.39556837986686
H           0.47127143796523    2.03366885231914   -1.51773603608976
O          -2.34776998516264    2.91519884195420   -1.59957976628255
H          -2.95006422533770    2.67069510884568   -2.30565153042136
H          -2.41260587803208    1.77855298620795   -0.45821577371776
H          -1.43463090135374    2.77407134900366   -1.95776347826315
O           1.98604192002465    0.26463127061236    1.73441305028333
H           2.45573511153728   -0.41845335704452    1.20024914734901
H           1.35123340435141    0.67154270874310    1.09932413984593
H           0.99004169819374   -0.51004585465383    2.43807756428560
O           0.48274912499575   -2.22265558769354   -1.06431304584309
H           0.18857352925076   -1.68046259779776   -1.80549252862654
H           1.97971464760419   -1.95274747923709   -0.30077598181256
H          -0.20465795264424   -2.05941286084367   -0.39697374230663
N           0.09971703314701   -1.10333567330346    2.76270182479673
H          -0.37527793734899   -0.66708363635835    3.54556962172079
H           0.35985467759679   -2.05878972634648    2.98573710456817
H          -0.54038379403841   -1.09446977140435    1.88991386076416
