    26
        -50.46147052  Gyration_radius:  2.5917004537 Dipole_moment: 4.224
 S           0.55345418738564    0.50050601572985   -0.00422651678935
O          -0.81834886843541    0.29522234752826    0.43902049052383
O           1.44810646518337    0.60552460262210    1.16155936309440
O           0.99867583860395   -0.84128107710197   -0.69385841964865
O           0.70773386963520    1.58224968945171   -0.94678036917589
O           0.12252592897949    0.93206313201638    3.49156516825075
H          -0.35934735375923    1.76044678946328    3.48736961734692
H           0.66535798741667    0.93268576172402    2.67796427150894
O          -1.88583588164710    1.67414893405780   -1.61578177209367
H          -1.98569030467040    1.11282400666041   -0.83328267224114
H          -0.96580479873192    1.97570934456561   -1.53150346151795
O          -1.52599990620882    0.03376617350941   -3.68457741403308
H          -1.78032781413021    0.62081402295543   -2.93206973436305
H          -1.84587704644247    0.46396249503098   -4.47893205142197
O          -1.07834812433794   -1.27071004900801    2.52791870070685
H           0.27485457312848   -1.80017191549432    2.18690531837448
H          -0.84016126480003   -0.57139436457189    3.17051834699297
H          -1.20714288562998   -0.76013794163261    1.69376852075306
O           1.08003174276067   -0.00304460287128   -3.08790386386725
H           1.12234017591218    0.87481955872554   -2.67897757059679
H           1.06107041244207   -0.64271367135803   -1.68499529940480
H           0.15663773034173   -0.09764723590219   -3.42009013016187
N           1.30406112847775   -1.87654565541346    1.80174880109086
H           1.30774189232715   -2.35475590031605    0.90211315904941
H           1.94871354920461   -2.29910206925829    2.46193454457100
H           1.54157876699340   -0.84723841111698    1.59059298306157
