    26
        -50.46224015  Gyration_radius:  2.54866419711 Dipole_moment: 4.820
 S           0.52166633553287    1.07315788310588   -0.02577834136658
O          -0.26652263480929    0.17450137824968    0.81031179579470
O           1.29524402359788    2.04197582663998    0.91229691075502
O           1.58379485239643    0.32418780733351   -0.72009926988279
O          -0.30198696979418    1.84506497002437   -0.93311304307224
O          -1.11952765945566   -2.76543034037403   -1.39758241511856
H          -2.06065416423672   -2.82710854377857   -1.56660431279892
O          -2.33669906289037    1.93932884319527    0.74403462774960
H          -1.78770835222596    2.00819386849054   -0.06183424963471
H          -2.03560008402447    1.10846859065809    1.13386678131914
O          -0.58462267658818    3.58076985722716    1.84456441689538
H          -0.60375069874661    4.37215922125689    1.30195211493596
H          -1.36884247716958    3.04115784127298    1.56871539085062
H           0.62781162755988    2.64589488936733    1.34061308086752
O          -0.29663423605945   -0.43965826424516   -2.45279510163023
H           0.54840015562436   -0.23678521621068   -2.01772165711375
H          -0.81707549132340   -1.94001204153143   -1.83985469704824
H          -0.80468555537569    0.36768801811080   -2.31210396352788
O          -0.15972300990193   -2.42519506478344    1.05598273822949
H          -0.32985864515809   -1.45628349283180    1.12011248090895
H          -0.60057180086867   -2.69109897386799    0.21485663754690
H           1.22359474298857   -2.29054168153508    0.66057853365326
N           2.21597964359290   -1.96940423019610    0.25837023201909
H           2.52093742413448   -2.58215239068308   -0.49120883825622
H           2.91731777705140   -1.91790298291659    0.98930785765893
H           2.01971691632838   -0.98097576188723   -0.13686770989803
