    26
        -50.46224014  Gyration_radius:  2.54872024665 Dipole_moment: 4.819
 S           0.52769361616006    1.00836287945949   -0.35881768446664
O           0.74064173352954    2.47316530581255    0.11650014981772
O           1.71268838962854    0.55775772020092   -1.05906008398308
O           0.23474510079195    0.19449962499283    0.81579341297896
O          -0.65490638568801    1.08544931858497   -1.23435614099787
O          -1.37781563822010   -2.94757071484787   -0.51392435422825
H          -0.83689269038347   -3.72285334494813   -0.35760347670464
O           2.89565752036516   -0.26892696721010    1.14974348341313
H           2.02649800437960   -0.41248729819034    1.54573642362813
H           2.67871263151303   -0.11254402812756    0.20948271919321
O           3.02513623186747    2.36100225085290    1.35720379736688
H           3.10310437199785    1.37624408035161    1.43658693644157
H           3.70398474493005    2.63117466890890    0.73488805620491
H           1.58911165609002    2.50146368925508    0.63899664486728
O           0.03497251596880   -1.33351668799805   -2.12565888483652
H          -0.87719243137134   -2.39080063860085   -1.15259361497738
H          -0.35715325106316   -0.45009921261737   -2.02367006837052
H           0.96976693544859   -1.16937804360493   -1.95542256115241
O          -1.89707272419084   -1.19417015857930    1.41304169603547
H          -1.76805178128857   -1.96524334260234    0.81196722789619
H          -1.03569628794755   -0.71591160971579    1.37780185606546
H          -2.60515822533482   -0.25389593298813    0.57517037232576
N          -2.92681105596587    0.51339572517321   -0.17168492843599
H          -1.99663993831794    0.82439586571961   -0.62961372703384
H          -3.37578540731647    1.30570951386972    0.27491365543632
H          -3.53353764590906    0.10477734680718   -0.87542091630386
