    26
        -50.46224022  Gyration_radius:  2.54862299227 Dipole_moment: 4.822
 S           0.33428983360209   -0.44463668394766    1.05603619996566
O          -0.04399653881261   -0.35041558248058    2.56109235086179
O          -0.15210042000361    0.76169413975282    0.39575944778424
O           1.76922813672609   -0.59828270442933    0.93442621938499
O          -0.40635550972831   -1.62399607261735    0.57471289847256
O          -0.24449696719406   -0.07517911428073   -3.28491666033883
H           0.38376389762584    0.44514448951706   -3.78761719725472
O           2.20756755603633    2.00365139802276    0.94003229705360
H           1.32468355979400    2.14032064359810    0.57307185169168
H           2.32690292903485    1.03712708358338    0.85501855756400
O          -1.89700000164680    1.04109638986215   -1.52977810331314
H          -1.24686928367040    1.13926584647058   -0.79524263694967
H          -1.35113565433758    0.74405163555046   -2.29549587929158
H          -2.46125192668695   -0.19648359870301   -1.04176347856658
O           1.18435987703731   -1.56064566574900   -1.56716000081526
H           0.56266433143529   -1.83059435173692   -0.87055807257364
H           0.29127957207609   -0.65912422348991   -2.70146326919215
H           1.90579070521295   -1.16635841240021   -1.06328338324416
O           1.55126008244757    1.50347948972585    3.44933304717195
H           2.31655796452987    1.06518630003817    3.82789883785337
H           1.84990345239052    1.87260921015559    2.57946068173127
H           0.50639187013934    0.37516374058205    2.96636259405056
N          -2.67080420236857   -1.18555116840364   -0.56477859361831
H          -1.75544419305104   -1.40697829212724   -0.03117857527504
H          -2.83834008980150   -1.90009690280987   -1.26599108871451
H          -3.44684897080437   -1.13044759365521    0.08602194555386
