    26
        -50.46224020  Gyration_radius:  2.54864332492 Dipole_moment: 4.820
 S           0.50418715243064    0.82873339951761    0.69653447838756
O           0.28147691808126    1.52520373872974    2.06855002820727
O          -0.77917443494947    0.29820845063283    0.25010378994465
O           1.05968751240436    1.78508938412365   -0.23843269709675
O           1.43356855648223   -0.27317768583487    1.00188231056211
O           0.05561759302315   -2.28951167713844   -2.36872029168820
H          -0.25786336175113   -2.03550903099943   -3.23779819149248
O          -1.31142873699849    2.65541785678006   -1.00131123945827
H          -1.68536916588315    1.79414673483854   -0.77492055239596
H          -0.34924549612984    2.48958078681415   -0.95297326457075
O          -1.06263826867818    3.65948247485410    1.42914650787687
H          -1.31630710096435    3.40490286251050    0.50559714377846
H          -0.26639414502147    2.34225194379581    1.90736001445721
H          -0.43375090823774    4.37924234530253    1.34231309527625
O           1.85601117683104   -0.44332568947607   -1.62764074842830
H           1.67462509712983    0.49512731591641   -1.75464922827194
H           1.92735033974571   -0.51633585477933   -0.66108733313849
H           0.75749337020017   -1.64144835472288   -2.13242514492594
O          -1.50973358926443   -2.16543284033963   -0.22599967655400
H          -0.48954273291518   -2.53160517564898    0.72923078108559
H          -1.43161269546316   -1.19453253569457   -0.07381632486403
H          -1.05880125283274   -2.30990675767070   -1.09104064548940
N           0.39304654311779   -2.58987357252286    1.41309272173309
H           1.04240096906311   -3.30857237674408    1.10952959044432
H           0.11155187796135   -2.74191552864671    2.37561631368000
H           0.85484479265117   -1.61624022362488    1.31185857295022
