    26
        -50.46224029  Gyration_radius:  2.54853511686 Dipole_moment: 4.824
 S           0.98081585041855    0.66007212855582    0.15908960918673
O           0.16740031154328    0.00142211454591   -0.85697854731017
O           1.14519635599965   -0.21889129519648    1.33015921570123
O           2.42146365592970    0.80903016342438   -0.40592932699248
O           0.46962042050991    1.96877306204453    0.51049200093979
O          -2.84934969401642   -1.32922925536840    0.98222999517309
H          -3.65693311621139   -0.89551090959607    0.70315368032102
O          -0.46794580502491    2.42711194283232   -1.91321476353031
H          -0.28359391448835    2.49607495292833   -0.95572635347192
H          -0.56113313028994    1.47435566455465   -2.04190033710752
O          -1.10136317811007   -2.28187156155488   -0.77646917699325
H          -0.67560366958040   -1.42207344035050   -1.00329175450764
H          -0.10377210500688   -2.67175267786646    0.19290715673629
H          -1.86774862927482   -2.02818901548739   -0.20993394143881
O           2.14553954933889    2.64389054750791   -2.23013941301688
H           2.38826118263191    1.47701927260165   -1.14505488990565
H           1.15690155458492    2.63891829878760   -2.29845104254317
H           2.37910702104194    3.48371815283626   -1.82856777283789
O          -1.29467288452830    0.56556360602894    2.07378668316098
H          -0.39125110461872    0.20760153055388    2.05670673892587
H          -1.18996453646172    1.42048241096127    1.64023224932620
H          -2.31271231082184   -0.63959660605866    1.43493508249931
N           0.69658179538913   -2.72673260497836    0.97170944233553
H           1.50684385443433   -3.23906557940658    0.64031463046034
H           0.34109205857313   -3.13162968269096    1.83194234867576
H           0.95722049804245   -1.68949119961985    1.13799846622875
