    26
        -50.46224029  Gyration_radius:  2.54851281871 Dipole_moment: 4.824
 S          -0.03360888663394   -0.42982397747103    1.11285185133386
O          -1.17497563286148    0.49494203016741    1.22669295457197
O          -0.49513947474773   -1.69582371208844    1.88822028020957
O           0.17277312461427   -0.80886393895958   -0.28054333920808
O           1.17065689512956    0.09128535487510    1.72577774763526
O           0.12856089801560    2.43436982721249   -2.21582056881874
H           0.97973370757225    2.62697624636038   -2.61155463006883
O           2.75817025825474   -1.44232025491978    0.27988560054537
H           2.08468539322172   -1.45976175246714   -0.41233176424440
H           2.42846677050216   -0.74505668736966    0.88042956095914
O           1.66282765511777   -3.14710320111037    1.97391276961546
H           2.08995080092202   -2.97592370786942    2.81610809978894
H           0.27819101100095   -2.32350803973767    1.92889088927134
H           2.19577500095327   -2.66230111399555    1.29341466869770
O           0.49877632212722    2.41987894393793    0.44174933453592
H           0.26200128517046    2.49125513562059   -1.24252315605662
H          -0.25388207443400    1.92758480745881    0.81002301847348
H           1.25627291936009    1.96383566666729    0.82659348110558
O          -1.00842259794500    0.04502928702938   -2.44985064731677
H          -0.57804546268619    0.92787027953807   -2.53943899828266
H          -0.47658484722421   -0.41227654771113   -1.75713561680863
H          -2.13390360673283    0.32589981905284   -1.58807226656023
N          -2.83104684884886    0.54200698216478   -0.74135265191623
H          -2.19049287896320    0.49632897340379    0.13002416260174
H          -3.56268916605280   -0.15697775175089   -0.67123206692995
H          -3.22805055485183    1.47247734211908   -0.82471869304100
