    26
        -50.46224033  Gyration_radius:  2.54852500656 Dipole_moment: 4.825
 S           0.43283991289217   -1.02870629631272    0.42157594132143
O           1.50639069595264   -1.55315589985972    1.41620728824645
O          -0.80696012176667   -0.99793276424882    1.21712456795665
O           0.81228930355364    0.32267700135688    0.02466352104765
O           0.34941806233294   -1.93121325548596   -0.70801873291578
O          -2.33104180240787    1.87132315644284   -1.38097232148298
H          -2.24918772046913    2.05687327346207   -2.31748263485781
O           2.26545028423357   -0.69621086350252   -2.03745650402467
H           2.04306114132455    0.11976214539574   -1.57080458305886
H           1.51852754177750   -1.28345463062232   -1.80799418981908
O          -2.11296129211574   -0.78806483694825   -1.10046120268388
H          -2.31085361734997    0.89114557314767   -1.29512595201950
H          -1.42521582206412   -1.27277337607312   -1.57147635203747
H          -1.87664668353243   -0.93661853544425   -0.16951157158168
O           3.57663972528940   -1.94119781658029   -0.11169599366294
H           3.26959048004671   -1.43976812805806   -0.90939203926536
H           2.35035393094342   -1.69105067367034    0.90407281837976
H           3.57598883026014   -2.86707511001808   -0.36441976806505
O          -0.44821603152859    2.58868703182851    0.35021506685334
H          -1.05063760639385    1.95683455924741    1.50134781790976
H           0.17908422771122    1.85207174465598    0.16086593583643
H          -1.14632018819796    2.49295542965188   -0.33978424812135
N          -1.45381657457327    1.25666076087768    2.27415165157343
H          -1.17400617060233    0.28049089841389    1.89965068762970
H          -2.46500634894310    1.32258522539507    2.33335733236588
H          -1.02876414640852    1.41515539678266    3.18136346442145
