    26
        -50.46224026  Gyration_radius:  2.5485306979 Dipole_moment: 4.824
 S          -0.30468906741736    1.14107019828126   -0.16446394593984
O           0.72918888520595    1.65781859954855   -1.03714467347025
O           0.05382143630245    1.23885246059909    1.26129453153836
O          -1.57468077926778    2.02815831642715   -0.29555091322928
O          -0.67909705746208   -0.22858666345559   -0.49869045879598
O           2.05722787328197   -2.39260333019623    0.94663481559187
H           2.55797822949278   -2.84053323771874    0.26336981315971
O          -0.10434720296180    0.25788083075803   -3.11310370966473
H          -0.46603786268192   -0.40022787282442   -2.50553520400929
H           0.43585244433775    0.81913041329162   -2.52268325416534
O           2.43186562917048    0.23851830796159    0.57770808363242
H           1.70075254208416    0.67608190904680    1.04511702614748
H           2.24947302169101   -1.43337118947585    0.84002604867246
H           2.37448767278835    0.62062739969972   -0.30581925429785
O          -0.59928290199830   -2.39789632964386    0.95643036391498
H           0.37140909200232   -2.57178340809358    0.94584685100566
H          -0.75129667958736   -1.50791047053656    2.08463803558240
H          -0.72546895129837   -1.69877139277838    0.27294500609101
O          -1.95732630679922    2.12423862097687   -2.86757017957953
H          -1.80774209469493    2.08073854440865   -1.26329133641146
H          -1.54744578123174    2.93051155178829   -3.18847613220477
H          -1.35405620732118    1.38516510581610   -3.13571153691243
N          -0.78091311035484   -0.64777564282414    2.79811149722215
H          -0.12013963817809   -0.78090366331853    3.55705113345018
H          -1.71640269654863   -0.49221546671335    3.15793980252048
H          -0.47313049852586    0.19378640891622    2.19092758018191
