    26
        -50.45059451  Gyration_radius:  2.46318534214 Dipole_moment: 4.137
 S           0.61143125683281    0.63280901319797    1.79701572209780
O           0.92124610501729   -0.88614168503268    1.69211716024732
O          -0.89855014637628    0.66216484956305    2.08687476638683
O           1.35730409713221    1.19233963339835    2.86086150099877
O           0.83251564647392    1.22177774427728    0.49008478586939
O          -1.41163955918333   -0.57068499169490   -1.66455737892070
H          -1.77296030370432   -0.81472436576643   -2.51710099949731
O          -0.50120924485948    3.38824705642184   -0.34318251569556
H           0.15640240931413    2.69970448330964   -0.12765172581009
H          -0.36486379519120    4.10114957353471    0.28267231558603
O          -2.19449179006333    1.36669348604395    0.06395230333773
H          -1.97789609538520    0.73191623183592   -0.64874745780964
H          -1.45183747695431    0.96813309251375    1.25364165409593
H          -1.75204775465074    2.20860060419818   -0.18303699994508
O           1.10699329346009   -0.13730034495925   -1.83765673827740
H          -0.42548100458549   -0.38761426415253   -1.81012459453005
H           1.16482324002289    0.48122952461480   -1.08962931456141
H           1.56981295994920   -0.95098353041681   -1.52926831898024
O          -1.23818640182611   -1.83654652255160    0.67968204456863
H          -1.92504913377723   -1.43284008451365    1.21761443501775
H          -1.34404173058849   -1.47367843574895   -0.22794827964220
H           0.10751505632987   -1.31803320402737    1.28698369893005
N           2.26251974582546   -2.28455307611038   -0.61812287627601
H           2.13753299700250   -1.93416266113910    0.32644119553693
H           3.24991633954197   -2.45513388222003   -0.76061507723626
H           1.78024129024126   -3.17236823457343   -0.68029930549105
