    26
        -50.45269166  Gyration_radius:  2.57767591627 Dipole_moment: 4.547
 S          -0.78053089409614   -0.28499847305055   -0.46909057294949
O          -0.51216410303219   -0.34284550540399   -1.88464982726560
O           0.34116918526565    0.50240777939854    0.22563884324830
O          -2.05049463960639    0.27554352479268   -0.10665051710321
O          -0.63450853261762   -1.68056939397243    0.13459459300111
O          -2.41735438480076    2.60827102537320    1.15552592803458
H          -2.57271478287124    2.44927467856739    2.08766093281023
H          -2.44404696577512    1.73563449360702    0.71636857620243
O          -1.35941903446810    2.15681748536389   -2.33526017049456
H          -1.03180877166789    1.24046481991598   -2.38213065677317
H          -2.28841972372224    2.09193789273948   -2.10050978130935
O           2.72252269807007   -1.01463375425020    0.10086791791842
H           2.14298642929471   -0.24326522162912    0.14489128072307
H           2.53792129715503   -1.51102054178371    0.92940031816153
O           1.15243976489371   -2.43895270465261   -1.41313327177064
H           0.84838298561668   -1.83566065040748   -2.10530748986132
H           1.91470861284617   -1.98183128012652   -0.95213870461615
H           0.09650987548921   -2.13831593368897   -0.47476998839273
O          -0.10929381160932    2.90122201892850   -0.13136379588758
H          -0.47190736180130    2.84684846149760   -1.04972804215416
H          -0.89919310059901    3.03558927049477    0.44033635721068
H           0.20968406373084    1.57585597097503    0.09662416960884
N           1.58705527009701   -2.35800218565054    2.19192371384724
H           1.74808010230838   -3.35742102839564    2.19392824852311
H           0.64992544734483   -2.19781425264483    1.83659792924398
H           1.62047038459209   -2.03453651599712    3.15037403001521
