    26
        -50.46224023  Gyration_radius:  2.54835553949 Dipole_moment: 4.827
 S           0.51069034175515    0.15514362553903    1.06807865466563
O           0.11348814004640    1.49212705076693    1.45815058017865
O           0.79182576889662    0.05462010310176   -0.35980755404326
O           1.80289603983164   -0.23898252922260    1.83749585293767
O          -0.47030039964068   -0.86872223636876    1.46850794627886
O          -2.58319464779577   -0.13258712774268   -2.03978371001255
H          -2.75565613955981    0.63445489447750   -2.58753852281162
O           1.62206676626781    2.64540309010991   -0.37435699351163
H           1.54514783543152    1.84972109638608   -0.91657990666655
H           0.95509344486743    2.49296945734377    0.32365844818439
O           3.38276524405579    1.78054419726377    1.39462961810115
H           2.47714478825534    0.47856316158899    1.68194291362960
H           2.88021693208416    2.20364502956464    0.65267077106669
H           3.30213168735691    2.37623422885884    2.14278699817838
O          -2.34223446002211    0.75676655797567    0.48036387595130
H          -1.81430393243480    1.53994195442338    0.67455907888236
H          -2.55651095212816    0.19573928670335   -1.11247521935587
H          -1.86940925724305    0.05780557860663    0.96247225412376
O          -0.29142693847669   -1.46792804540707   -2.18660079643766
H          -0.57436979129212   -2.37573085887969   -1.09881512204973
H          -1.15085213196640   -0.99951514027288   -2.30719425294703
H           0.24780237110934   -0.84452309880855   -1.64568555749025
N          -0.76822211339471   -2.87312062334805   -0.11646872902377
H          -1.72502411236593   -3.20729844892530   -0.05988600236006
H          -0.61732872386648   -2.07815001270710    0.60246819077624
H          -0.11243575975309   -3.62712121105078    0.05740718375260
