    26
        -50.45059458  Gyration_radius:  2.4631660719 Dipole_moment: 4.142
 S           0.10458521334649    0.48189916809730    1.93910408833340
O           0.24426570112718    0.43841482495132    3.34610198132363
O           0.85353429166001   -0.51410317079277    1.19705239360483
O          -1.39515208149025    0.32553041630582    1.56411243286845
O           0.46241657302945    1.86787770133876    1.37686478614981
O           0.13515474247156    0.23533129711955   -2.23890758875395
H           0.15828912198730    0.05854836414996   -3.17976357799140
O           3.40617719248729   -0.14029083844875    0.48296828752524
H           3.92787298264723    0.04035307505782    1.26632558809126
H           2.54438732624148   -0.47676597831335    0.79474173590695
O          -1.55373467091789    1.58189982939034   -0.66953248842655
H          -1.01054728412670    1.10489594801526   -1.33593711144974
H          -1.52048085309687    0.79253711976739    0.68155029358920
H          -1.09791860028360    2.40783192209200   -0.48472634649864
O           1.84517824787210    1.67126828893675   -0.70057677097720
H           1.05225003487099    1.80106536610973    0.51545985316534
H           2.57706004519216    1.08419948003702   -0.40850882554514
H           1.32242795304757    1.14802583781644   -1.34153506531418
O          -0.06602312290434   -1.94591017189150   -0.91121839749066
H           0.36441137649263   -1.62262609968739   -0.10150642811407
H          -1.01425190871246   -2.05758597890782   -0.66648755048603
H           0.08344489843686   -0.66525202709065   -1.77691691206824
N          -2.62835818585802   -1.95260618217619    0.01953990181156
H          -2.44433235762044   -1.34121423756789    0.80883577110936
H          -3.01670140571121   -2.81649134576692    0.37637318104690
H          -3.33395523018751   -1.50683259854330   -0.55341323141182
