    26
        -50.46224028  Gyration_radius:  2.54836651392 Dipole_moment: 4.826
 S          -0.42993399055793    1.04526984015866    0.38328947482141
O          -0.13871903427333    0.45967349341602    1.70357827844545
O           0.00427475829200    2.53126476142884    0.52557951182292
O           0.40910805105783    0.42965411535160   -0.63884460230352
O          -1.83731611924637    0.99085502186633    0.04585009033518
O           0.10477403546022   -3.29098203576357   -0.08662578492758
H          -0.32826101845226   -3.72402042282377   -0.82362403756825
O          -1.38585415787794    1.16476376201709   -2.54809107853346
H          -1.82194932358558    1.03154599966250   -1.68344405339330
H          -0.51892711294781    0.76151902355144   -2.41152542437547
O          -1.68227948357842   -1.58877961116901    0.96617952468105
H          -2.21522044072208   -1.02545406692381    0.39304949359959
H          -0.57626708538813   -2.71518824447141    0.32928148704218
H          -1.16468734906147   -0.94309938827563    1.47586268903585
O          -0.86087534615005    3.60435857024731   -1.68142699461535
H          -0.26312399824065    3.00474197035315   -0.30988281642195
H          -1.04472018416108    2.77388312618805   -2.18991052996537
H          -1.71726082748882    3.99404803937571   -1.49225818090398
O           2.08833029104470   -1.56445508371408   -0.46036333298183
H           1.45140242331035   -2.31625227675002   -0.41651352565699
H           1.53075210513098   -0.79237050182918   -0.71537473897069
H           2.22312669503121   -1.17881606231219    0.92493738857961
N           2.10626181492743   -0.77047191400528    1.95946875299989
H           2.87656263165545   -0.16007814975485    2.21014346563814
H           2.00419733625049   -1.51903211026509    2.63739563224173
H           1.18660529964457   -0.20257786537306    1.90326931141243
