    26
        -50.46224018  Gyration_radius:  2.54865772104 Dipole_moment: 4.823
 S          -0.55614691590932    0.92395439843799   -0.51114615823010
O          -0.01925720254050    0.43452427265353    0.75384274108715
O          -1.28613984494646   -0.15102225310472   -1.20580043186767
O          -1.65342594579834    1.97691948153869   -0.18816024215147
O           0.46109930804775    1.53539006300310   -1.34103736673401
O           1.69122683527863   -2.82687259984801   -0.07074633018721
H           2.63854773287811   -2.77986314357027    0.06522158958007
O           1.83889729097453    2.42195824547056    0.72742090532377
H           1.57498710800523    2.17360879240330   -0.18041339885724
H           1.48419380485750    1.69556720755335    1.25607043354207
O           1.09861804425032   -1.05255592837233   -1.99447695774561
H           1.49297269789960   -2.21776041344713   -0.81779097320049
H           0.14699887324228   -0.87592854792336   -1.90625428758472
H           1.47928051020264   -0.16683780909798   -1.97755429347854
O          -0.27957906463629    3.99927895562781    0.70279791009303
H          -1.20074533819539    2.77671224515106    0.19789696731232
H           0.58574895459418    3.53874435396062    0.84853355924757
H          -0.13989991805716    4.59833538399789   -0.03388184048887
O          -0.02696459398836   -1.97436190359436    1.76706430656800
H          -1.21538983387733   -2.18161944254720    0.97215561899184
H           0.67752662551283   -2.38985060185161    1.21601643034198
H           0.04870501253819   -1.01190567328901    1.56730800241045
N          -2.04517745232505   -2.15094327336826    0.22341082020800
H          -1.79883095060239   -1.29411356613467   -0.39036166478107
H          -2.94605278029560   -2.01170183364576    0.66817737355893
H          -2.05119295696767   -2.98965641999986   -0.34829270301884
