    26
        -50.46224022  Gyration_radius:  2.54869719316 Dipole_moment: 4.823
 S          -0.38407248653893   -0.54662737971577   -0.98876379913767
O           1.06119846660854   -0.66265440835056   -1.25083770372509
O          -0.96112505477363   -1.91634350855686   -1.44461351952995
O          -0.62885694805446   -0.41194157826195    0.44299729606756
O          -1.00762837046527    0.51182269421858   -1.75581875200950
O           1.75829514634118    2.26708292733146    1.61943685462022
H           1.29844802656909    3.05045038171528    1.92440037729793
O          -3.03508613812413    0.74331540489141   -0.08290387577225
H          -2.39876727632385    0.90965118779501   -0.80599970579869
H          -2.46682383136157    0.41708861361447    0.62678403477643
O           1.05821000423129   -0.16596926377041    2.42378721487559
H           1.32894163357286    0.77396883995605    2.29808617911842
H           0.28282813136455   -0.27466935227219    1.82476829997111
H           1.98322127262178   -0.87914317034100    1.57313094684474
O           1.17043697767610    1.99041213945353   -0.98400952597649
H           1.58535461468155    2.20896984017981    0.65244551153221
H           1.36429141050696    1.06310007776404   -1.20093883443092
H           0.26280105672863    2.09302914006638   -1.29296000130562
O          -3.53268914568769   -1.54310633514614   -1.30793604409987
H          -1.95446796251179   -1.86203643198140   -1.38178530662430
H          -3.53355851157480   -0.70681104014166   -0.77615298883007
H          -3.83425678636909   -1.29932313737670   -2.18582172501288
N           2.54870905024781   -1.35086933208463    0.73199602156827
H           1.94274725428550   -1.12558897681258   -0.13623173401500
H           2.62612311186771   -2.35532677568046    0.84980098957260
H           3.46572633449144   -0.92848057651499    0.62713980010581
