    26
        -50.45652773  Gyration_radius:  2.46343533097 Dipole_moment: 4.624
 S          -1.18748865911524   -1.04472459529305   -1.00553285918238
O          -1.72925324698138    0.20674713487242   -0.49610324024900
O          -0.72571088787527   -0.83781135473339   -2.44280964111664
O           0.11096271723380   -1.35246600376334   -0.22600034283202
O          -2.05413075948052   -2.16643097164680   -0.91940770840329
O          -0.56594603806844   -0.28200204900105    3.20993728894415
H          -0.26336719264988   -1.00735858406408    3.75824396022919
O          -0.32991674403320    2.38196045623399   -0.27228133501045
H          -0.96233226898012    1.62868171440763   -0.36249199430281
H          -0.85868651472096    3.17635158367787   -0.18509789844045
O           0.99610636630212    0.51814839175031    1.23330099347733
H           0.47798084189265   -0.57466320866670    0.34119241504815
H           0.62172782118487    1.33788088752556    0.86737487767423
H           0.48105446014372    0.31200296044068    2.05172208503350
O          -2.55156687647235   -1.20473080656290    1.64043561962657
H          -2.52724706290828   -0.49594573934446    0.98100408890344
H          -2.54514162101318   -2.00884592060579    1.10901650955733
H          -1.34724258053085   -0.61787437385585    2.71910850440282
O           0.89800913807902    1.07636968739082   -2.37643758849626
H           0.55844968048371    1.71439907487963   -1.72635306978719
H           1.69617435209959    0.65234519551375   -1.95505564237527
H          -0.07097938046014   -0.02854868460173   -2.48897791581490
N           2.83191694243402   -0.19067458364461   -1.03702750882921
H           3.81773518987691   -0.16795169852456   -1.26329154250609
H           2.51632917422516   -1.15250971732764   -1.07286114238629
H           2.71256313937904    0.12765119494789   -0.08160692316027
