    26
        -50.45059457  Gyration_radius:  2.46315782808 Dipole_moment: 4.139
 S           1.63279661889487    1.13259962255563   -0.23472531022184
O           0.27541663432693    1.53076186778106    0.08593129608853
O           2.00658419375965   -0.06347224895066    0.68390670200280
O           1.62962849114888    0.50657429449853   -1.63935403175333
O           2.61688955060635    2.14188798736511   -0.11617531596907
O          -1.66751721423298   -1.42630979992271   -0.52261729296903
H          -2.47039870830577   -1.94747703733504   -0.49612528340379
O          -1.34430003746232    2.66124991900969   -1.72105890113001
H          -0.92418090702631    3.44863088671914   -2.07041108103530
H          -0.83451999105531    2.40206355949569   -0.92989361538290
O          -1.50131487097265    0.08840278109008    1.53630888005822
H          -0.95420418936661    0.77780811125089    1.12296237043811
H          -1.67970574213253   -0.83440618594110    0.30001409401986
H          -0.90380693896723   -0.35488753088974    2.18274178017011
O           0.92622117738853   -2.05924884009216   -0.51666778392115
H           1.20140812083123   -1.93680059194609   -1.42958036514030
H           1.59740247382892   -0.88363623969440    0.26834644096499
H          -0.04992423690811   -1.94285314001172   -0.50061416442744
O          -0.70612093498110    0.18441962661243   -2.48097237849325
H           0.65970154885623    0.37859356000904   -2.00942806397852
H          -1.16649642490680   -0.38608545570631   -1.83260224762706
H          -1.09193519975036    1.08139369016081   -2.37067834196758
N           0.44677707070121   -1.04518236025587    3.07028657577483
H           0.54612542211093   -2.05171546616629    3.02925791294297
H           0.53464209727552   -0.76209002847338    4.03800194768171
H           1.22083201634100   -0.64022097116933    2.55314617727908
