    26
        -50.45652767  Gyration_radius:  2.46342809953 Dipole_moment: 4.623
 S           1.23777252931422    0.68576522250745    1.22910115181488
O           1.10481249597090    1.43558534054437   -0.01169931114821
O           0.60358613597932   -0.70687561770654    1.01261875696243
O           2.56575387752916    0.51928493670016    1.70381588080351
O           0.36761097378206    1.33526970663451    2.29800110188997
O           1.47944320763397   -1.62698889495808   -2.42354743278989
H           1.79463034999950   -2.52982588791339   -2.36019131900086
O          -1.14420665379089    1.70627417308830   -1.27981756150293
H          -0.25298143033870    1.70852690404832   -0.85408607430201
H          -1.14911307085764    2.42648593279017   -1.91192611416317
O          -1.95407604721551    1.40786665643258    1.34555946886435
H          -1.86554844263626    1.60952286627616    0.39868609036465
H          -2.22755246171255    0.45027978616100    1.39895494501604
H          -0.61008355117266    1.42637204061198    1.94821405120101
O          -0.73152409392627   -0.99638809691807   -1.11958758217670
H          -0.99526968371123   -0.09989363462662   -1.38934518489850
H           0.01124864516688   -1.26461878954888   -1.71462793824660
H           0.03878480736925   -0.80431540739762    0.15655699042319
O           3.11986720290905   -0.07554006661926   -0.95427480769092
H           2.52516188531073    0.68348913383372   -0.86411219978033
H           3.41857720158498   -0.23779942152097   -0.05236889383202
H           2.14476587223940   -1.07202384499469   -1.96147225142536
N          -2.39657074399618   -1.22679552715337    1.37115095431623
H          -1.62293551054248   -1.56380294532748    1.93145430205506
H          -2.21834495518340   -1.51057926891001    0.41399888157356
H          -3.24380853972365   -1.67927527602662    1.68894408567467
