    26
        -50.45652768  Gyration_radius:  2.46337539874 Dipole_moment: 4.622
 S           0.59777805379580    0.78084146266039   -1.59514890526762
O           0.87342206520795   -0.64131020970095   -1.45085214876953
O           1.83030748263606    1.57117981776726   -1.17348378410449
O           0.16134173542877    1.19161296617543   -2.88252521599783
O          -0.47809448749640    1.16403063611634   -0.55396818175207
O          -2.76106899496778   -1.69801769054149   -0.44874275435918
H          -3.63675801436070   -1.31121386424211   -0.49371542049892
O           1.44376779408876   -1.75993901497609    0.82128851695792
H           1.85838237020898   -2.61978055821097    0.73748833489667
H           1.28719401756611   -1.42976743279176   -0.09632562943044
O           2.36268725874159    0.82385518189213    1.16341422369841
H           1.63708384906696    1.26251357468507    1.68855584803949
H           2.18321584136561   -0.13074552150380    1.20322541657591
H           2.12525280988047    1.28019789597308   -0.21704853249009
O          -1.00629878066883   -0.59378190880580    1.19051126686210
H          -1.69910901846804   -1.08736862082792    0.68632057863285
H          -0.22431820855792   -1.17096445503046    1.22831413038990
H          -0.66405629474037    0.45286652066568    0.16783155328647
O          -1.46055348115360   -1.05964431161972   -2.71970546553598
H          -1.39496341568318   -0.18752455770649   -3.12483450308836
H          -0.56231385274032   -1.23070843605021   -2.40068838131021
H          -2.34433710708931   -1.53331614647896   -1.32245350048242
N           0.21831408316893    1.89777064270842    2.34063571399443
H           0.22138877213772    2.42183880901288    3.20603655150468
H          -0.41962512136293    1.11559611687134    2.43908159825328
H          -0.14863933598872    2.49177909395071    1.60678870000867
