    26
        -50.45652771  Gyration_radius:  2.46343795695 Dipole_moment: 4.625
 S          -1.50277476212782    0.48982183220911   -1.00664178118392
O          -1.92887806815250    0.77415748185071   -2.33113099828918
O          -0.54336369396923   -0.72144662935337   -1.03694360588541
O          -0.82612854346775    1.57949000011385   -0.31815402162132
O          -2.67807505171172    0.02005517437890   -0.15845913675651
O           2.78461295164458    0.71778232973173   -1.56170448214331
H           3.17595713799695    0.18367327879848   -2.25451179637393
O           0.29608568232179    1.31765373534563    2.00808438280503
H          -0.14007449781727    1.53878811274692    1.14987753559262
H           0.45885510866715    2.14889017707713    2.45623423407513
O          -1.71595447683330   -0.57515518300104    2.08276249643807
H          -1.24138564919338   -1.42905855161508    1.88179127065046
H          -1.02243526452327    0.07819453845539    2.27577820546573
H          -2.34807043973634   -0.21162165409101    0.80272038669425
O           1.53000342248675   -0.52711853429330    0.40357160245673
H           0.28206225610709   -0.64354314118904   -0.42525671807189
H           2.11437075620349   -0.07299287061981   -0.25219770498484
H           1.31503536095749    0.13004942148740    1.08763989405458
O           0.59439789865203    1.91285583514592   -2.57737977260185
H           0.17242413506880    2.13511375458798   -1.73451442112124
H           2.04847772335057    1.21364984878249   -1.98159371548087
H          -0.11284457892382    1.49504770847369   -3.08170395737370
N          -0.33218594009984   -2.71575839115938    1.28242780944655
H          -0.69700015153749   -2.86394865779233    0.34917609085861
H          -0.29778043217664   -3.60766839830688    1.75873848864222
H           0.61466911681571   -2.36691120780917    1.18138974469482
