    26
        -50.45059451  Gyration_radius:  2.46318805266 Dipole_moment: 4.137
 S           1.39777221866152    0.33812231689053    1.39114997860842
O           2.22276477121365    0.79323925900289    0.17575430719008
O           0.06601574331242    0.89978413607501    1.26962020812645
O           1.28595119268848   -1.19805858667541    1.18661018379516
O           2.07117032007529    0.60271495575549    2.60674989455640
O          -0.98321063092679   -0.05144664267392   -2.02973246326123
H          -1.62367626873116   -0.13737546426457   -2.73638401739457
O          -0.35566322992136    3.39936151309295    0.40883302865409
H          -0.35373192839221    2.53905448884685    0.87020149383682
H           0.12709446111377    4.00988706683080    0.96804079830913
O          -2.10340135930412   -0.36500153978705    0.25241697289837
H          -1.47219513472804    0.17240466915879    0.76059496806497
H          -1.49478822617390   -0.15776987869396   -1.16129087555764
H          -1.93520272337661   -1.29241840371060    0.54049691616103
O           0.78068206714339    1.94349475345575   -1.51697851710810
H           1.63495264327759    1.28780019611571   -0.53412311540087
H           0.08183595039930    1.30866625995066   -1.77466623496390
H           0.33279598368414    2.63036288304952   -0.97551867600402
O           1.20863694812906   -1.42545750965190   -1.36950724211838
H           0.38271301749586   -1.00367894425216   -1.69604258330090
H           1.93461238734488   -0.86540286261281   -1.65834792254428
H           1.23977385022959   -1.35304628371958    0.19329686836174
N          -1.25915585461055   -2.81296210291980    1.10562495395084
H          -1.08025404922334   -3.51711340539421    0.40075612353399
H          -1.74500689609854   -3.25727509434150    1.87431910556631
H          -0.36048524328238   -2.48788574952801    1.44812585603921
