    26
        -50.45652770  Gyration_radius:  2.46343752514 Dipole_moment: 4.624
 S          -0.45794793117596    1.80086439946501   -0.24724506044332
O          -1.57285570326851    0.86483364041244   -0.24718099821611
O           0.84281204905293    0.99008429599279   -0.44505174862091
O          -0.51821350444156    2.82389475612981   -1.23030617529991
O          -0.31778771590867    2.40687190272325    1.14370752403627
O          -0.03767204370107   -1.65464890462773   -2.82320924498002
H           0.67109553999914   -1.64744167364594   -3.46824616050213
O          -1.65125304440850   -1.25901483819547    1.24370817420137
H          -1.74620144572866   -0.45694490853207    0.67512052407830
H          -2.52952562620403   -1.62790998233773    1.34780140980358
O          -0.07326708247840    0.46597946264125    2.71765628676526
H           0.85533659295311    0.15902779688585    2.52240931817792
H          -0.24588216778707    1.64631909888495    1.85256890222503
H          -0.66175764036012   -0.23698120765115    2.39424439179309
O          -1.26248433787503    0.74291736477984   -2.91587702369583
H          -1.70146535061132    0.69165255238401   -2.05416485887483
H          -0.84212039723627    1.61021274722140   -2.90483427309367
H          -0.52498491752184   -0.81073521730934   -2.94317661853203
O           0.61772561399729   -1.52562199215688   -0.26588310928032
H           0.38161440946074   -1.71314107316067   -1.20764025787374
H           0.74476943104340   -0.03035499445722   -0.34160286819552
H          -0.18585599606557   -1.68153538928058    0.25945044435946
N           2.33891333017888   -0.32575397745112    1.88516472192466
H           3.11262461479069   -0.58630115582673    2.48272074264765
H           2.62798006762927    0.45413376080013    1.30706278040352
H           2.13640325571932   -1.10040646369069    1.26280318725953
