    26
        -50.45652770  Gyration_radius:  2.46352435267 Dipole_moment: 4.622
 S          -0.81600351058639    1.67387710764002   -0.21024090070329
O          -1.30760280065652    0.21691627650560   -0.36676104279041
O          -1.22359220634443    2.06032719781327    1.20612670563362
O           0.63693117979257    1.66802467635874   -0.30118828557624
O          -1.48482489201794    2.49095212932637   -1.15981950947629
O           0.90938008388610   -1.26881567601951   -2.87627572899602
H           0.32231271717584   -1.72162475226550   -3.48352991111799
O           2.14774037442193    0.09856912779316    1.11090171919341
H           1.67222982126737    0.77079684858950    0.56536657513405
H           3.06325926696542    0.37810480609559    1.15537454416566
O           0.48438999798961   -1.57051789727473   -0.28478688432557
H           1.23288562973467   -1.17187141635290    0.19148106632069
H          -0.57399811987061   -0.50340346320867   -0.30283263458318
H           0.72609904490880   -1.57051029259830   -1.24357564220979
O           0.31092892293356    1.35687876366752   -2.95260116714272
H          -0.56494420852255    1.75429949870762   -2.88978855761316
H           0.73373692820525    1.60441042050630   -2.11723437734703
H           0.73659939690450   -0.30934043779161   -2.99322463338253
O          -0.07098579216853    0.42731027559362    2.72520228113091
H          -0.74752533449345    1.43650756136663    1.89214554305803
H          -0.59884853289769   -0.40449901142771    2.56980948882141
H           0.80905103628498    0.26117843116642    2.34701532751320
N          -1.46582452396935   -1.73145788543703    1.99583543343678
H          -1.85573572958725   -2.42174941104771    2.62436538567236
H          -0.85412909629747   -2.20249862208234    1.33826912251941
H          -2.22152964307382   -1.32186426563370    1.45996610267424
