    26
        -50.45652767  Gyration_radius:  2.46341390509 Dipole_moment: 4.623
 S           0.13058768751049    0.03894172868831    1.86928684689299
O           0.94474353915765    1.01781219433057    1.16343590625458
O          -0.92974167035921   -0.49779895903619    0.88125260845832
O           0.98880335642641   -1.17598707940665    2.19945463129988
O          -0.52454715629647    0.51542588185637    3.03561657169408
O          -1.91323595139466    2.40413269974623   -1.12765801889547
H          -2.87111515905452    2.37762664812178   -1.14187158433497
O           2.06937701171761    0.54884948999105   -1.12882851626182
H           2.77826739537921    1.15639845385258   -1.34482390189733
H           1.73000624716317    0.81345900351234   -0.23977467877688
O          -0.60682571501338    0.14495216470646   -1.54664425172240
H           0.33804945859729    0.35591356561345   -1.63980784856425
H          -0.77263026216388   -0.25414382060345   -0.10735620959871
H          -1.08972292175405    1.00766731094305   -1.52893179213225
O           1.93753776483309   -1.96432745994073    0.01283351631344
H           1.44203994626546   -1.53327432738418    1.33144295871302
H           1.13925837820957   -2.37674000351568   -0.41996123957851
H           2.14527391801750   -1.17037907449425   -0.50831226914728
O          -1.13366034265605    2.70321165407744    1.43354682210703
H          -0.21799582442684    2.40916881141564    1.31948804754676
H          -1.65917912297391    2.60827070170395   -0.20140080543818
H          -1.43983406325765    2.20012039701115    2.19655831693155
N          -0.36284676362722   -2.80894683806961   -1.05135334372179
H          -0.98371880723448   -2.78814003534292   -0.25130958268161
H          -0.50029633644259   -3.68331198857981   -1.54137230420833
H          -0.63859460663155   -2.04890111919009   -1.66350984926140
