    26
        -50.45652777  Gyration_radius:  2.46349961145 Dipole_moment: 4.626
 S           1.52926388670340    0.10607306486591    1.07811991760141
O           1.77504782671950   -0.11455635537057   -0.33968140579525
O           1.65969452864842    1.59402718417212    1.37921467727403
O           0.04318959028432   -0.21308386010745    1.35804633853466
O           2.33883051049558   -0.65252800765046    1.96453741798808
O          -0.72295516701401   -3.09748879409557   -0.76607185831087
H          -1.18560030937549   -3.71019921798009   -0.19259028936608
O           0.30946464837040    0.91633343028295   -2.21823029774963
H           0.95799017129789    0.51778647501341   -1.58886756564824
H           0.72754428649267    0.91751361551981   -3.08047724352158
O           0.05845529971030    2.75321659481490   -0.16865324051353
H          -0.82235539332615    2.52796481899209    0.24111804335003
H           1.04037533932622    2.13776530476663    0.74117754870624
H           0.08963564549424    2.27803625981850   -1.01618058949809
O           1.75518498492449   -2.74309513191274    0.22903336243100
H           0.20139153963832   -3.05967313300401   -0.43706444262691
H           1.96068465711538   -1.92229740366734   -0.24203658058532
H           1.99107267963094   -2.54506283222426    1.14239173998522
O          -1.41986125219607   -0.54912079997129   -0.68140127179950
H          -0.54862206291893   -0.31895238847954    0.52146892102721
H          -0.96710932591380   -0.08931108323835   -1.40914117547877
H          -1.25741295374108   -1.51564324332463   -0.81221486552193
N          -2.19059496740902    1.84976887908100    0.95592394722251
H          -3.01016322215296    2.40513792370563    1.16433224993993
H          -1.84664977091247    1.44830715194830    1.81997117622119
H          -2.46650118990558    1.07908152804565    0.35727549612022
