    26
        -50.45652776  Gyration_radius:  2.46339082565 Dipole_moment: 4.624
 S           0.78882499706517    1.53405101502354    0.73203427854386
O          -0.16786285859485    2.65511818593292    0.34521880578066
O           1.67564754127750    1.96859916585122    1.75246393414808
O          -0.12746799892786    0.42703641948357    1.30074973454988
O           1.42357531424474    1.01533029281666   -0.47104959658492
O           1.69672757008026   -2.69793176687027    0.73818465595704
H           1.64298537932554   -3.16772389086221    1.57169271884465
O           0.10601803720942   -0.08908090102810   -2.41632007654617
H           0.59599360239184   -0.13772461480633   -3.23838101491532
H           0.69536117194704    0.35630324243841   -1.76071181070477
O          -0.50548791503928   -1.57698960662627   -0.20024821710621
H          -0.29766402161260   -0.36972932970994    0.67012646878909
H          -0.32396888263906   -1.26740325791266   -1.10430828885703
H           0.27843457152242   -2.11060975263377    0.07955546863315
O           3.02131655026440   -0.39247275359053    1.17176662525538
H           2.26236577031937   -1.91245232972344    0.90293935282290
H           2.73063608250202    0.06940504207028    0.37172919959581
H           2.85826684430159    0.24695466561368    1.87433805094088
O          -1.74012737075585    1.66622448436101   -1.34424789170303
H          -2.31343295263277    1.08333788706474   -0.77335158978547
H          -0.83004551992525    2.31618860581067   -0.38460980263432
H          -1.21694515588263    1.06542461076272   -1.90131197283559
N          -3.00434004023326    0.00694583242733    0.32557343264278
H          -2.68070365700988    0.33210036048050    1.22866065129168
H          -2.56271493265718   -0.88991100804820    0.15516730778946
H          -4.00539215658406   -0.13099060835401    0.37433957605215
