    26
        -50.45652771  Gyration_radius:  2.4634118725 Dipole_moment: 4.624
 S          -0.00546708137949   -1.78190674559337   -0.57966257034216
O           0.25343630378863   -2.60093603503568   -1.71050479158750
O           0.15593581235220   -2.58320280254610    0.70626738954023
O           1.08459131369032   -0.68993547868432   -0.49032465662991
O          -1.30272248113379   -1.12148953313122   -0.56761674890935
O          -0.18791484860865    2.08630364313398   -2.51314604259422
H           0.55088737236780    2.34946166407246   -3.06385741860764
O          -1.99375842030748    0.63392013032647    1.21583660263541
H          -2.93910314269547    0.78114582060156    1.27008281775557
H          -1.85311578231209   -0.05423755063919    0.52148320408148
O           0.26970564086712    1.64535448723394    0.05242361127296
H           0.07474247018258    1.94328933230854   -0.87006788933305
H          -0.58859456741386    1.52897146067105    0.49488567414112
H           0.74518483472730    0.25018457102614   -0.24050348962184
O          -0.81194476382578   -0.46109557869021   -3.12817628761577
H          -0.20443334777860   -1.20582051974188   -3.20128112476958
H          -1.32040705477907   -0.65977381341292   -2.32825810384584
H          -0.45448080912319    1.19308682108732   -2.82174677445544
O          -0.18943524787450   -0.95121953024474    2.58277501068385
H          -0.89533160599931   -0.34369313692129    2.30395362393677
H          -0.01066732942272   -1.96551848438309    1.52894636093566
H           0.65604572727317   -0.42320552544840    2.55243926689886
N           2.03531916336698    0.47331578298184    2.18313342771699
H           2.54355575882983   -0.10985245158110    1.52918394150220
H           2.67575623168704    0.78058789323537    2.90355181661379
H           1.71221584352360    1.28626556938690    1.67018314060005
