    26
        -50.45059457  Gyration_radius:  2.46316787806 Dipole_moment: 4.139
 S           1.78791025986453    0.58365323707147    0.68301691761989
O           1.72022189480477   -0.96568661868990    0.77864439318560
O           2.84578926325398    1.05887163132447    1.49310128817432
O           2.06290563545376    0.82979403540961   -0.80986471438671
O           0.47016512544868    1.10503750405619    0.99203823417054
O          -1.66430610395124   -0.40699192487172   -1.46723437333663
H          -2.51443853086507   -0.61820786854818   -1.85400990159790
O          -0.42350809023687    3.41624994825585   -0.02088579361303
H          -0.18659146422176    2.64791903189377    0.53276800038773
H           0.18768660461358    4.11750646751726    0.20972284204407
O          -1.82376757692117   -0.33347792574479    1.08824957103664
H          -1.08933428633404    0.28837170074156    1.22741691333292
H          -1.80485559003019   -0.36687285916851   -0.46430658153556
H          -1.49281060272519   -1.19632864768966    1.43077133989576
O           0.01288198697164    1.66075810519790   -1.98236910581587
H           1.21795511150085    1.19044708484554   -1.30995670610352
H          -0.68334753664148    0.98538644127905   -1.85221109777854
H          -0.24876386580922    2.42667775112063   -1.42516039028583
O           0.70910525974512   -1.62958805738132   -1.48594138422589
H          -0.20728674478673   -1.27675824607326   -1.53475243666373
H           1.23166383615304   -1.12175354641514   -2.11297108549322
H           1.31720040366923   -1.28943277898734   -0.08482448190249
N          -0.54581270180359   -2.59215140877911    1.92407544370717
H           0.38953885867863   -2.20568556399716    1.84450270111424
H          -0.59234736387869   -3.40443982652708    1.32184750845280
H          -0.67585377195468   -2.90329767583932    2.87833289961833
