    26
        -50.45652774  Gyration_radius:  2.46342011122 Dipole_moment: 4.625
 S           0.21877105129397   -1.85800185657694    0.11223148609192
O          -0.58644406971430   -2.39120277258535   -1.06627564915613
O          -0.72892202406975   -0.84861515296259    0.79895496856632
O           0.51676321781018   -2.90521800748890    1.02399780062586
O           1.36789658214003   -1.12052918638199   -0.39273613318094
O           1.48265668267256    1.54174063796560    2.47669427373965
H           1.11710723898137    1.63345277763288    3.35786151348148
O           1.16149268971935    1.00327201443305   -1.87131790659694
H           1.96348230115690    1.22456003254507   -2.34685116337619
H           1.35300646135586    0.18041214681709   -1.35966534470746
O          -0.19269777430359    1.59895210347535    0.43315228121582
H          -0.51847360622175    0.14388830651417    0.61981535110414
H           0.44247524819152    1.71675255124136    1.18182651885222
H           0.33157132248242    1.63433984368992   -0.38535562151065
O          -1.14512421537172   -0.39239366976431   -2.47902507551574
H          -0.82232564211589   -1.60916580480507   -1.71365500892878
H          -1.84373902944640    0.05890898463949   -1.92856222118870
H          -0.36941842131656    0.19325344173285   -2.46088750380250
O           2.22527049879976   -1.02767830692270    2.15474129757933
H           1.70329062153316   -1.81243859362638    2.35665114595600
H           2.26657738809003   -1.02443989970863    1.18720023170116
H           1.83073858015076    0.62545197079785    2.41922660342837
N          -2.82456508228659    0.76449241621953   -0.75317177062182
H          -2.96785456895012    0.02701538469805   -0.07376459439987
H          -3.72368670356039    1.16631564731853   -0.98486408384153
H          -2.25784874701901    1.47687498110478   -0.30622139551130
