    26
        -50.45652757  Gyration_radius:  2.46324852811 Dipole_moment: 4.621
 S          -0.00803529006992   -0.70135505587551    1.73749817325847
O          -1.44901844635697   -1.15277138914767    1.94067046156322
O           0.61462881763258   -1.54201348041923    0.72516950522099
O          -0.13150908107386    0.72636549482864    1.15879754419284
O           0.67219144304012   -0.63751043525858    2.98241553590771
O           2.92721655953955    1.23073466556201   -0.79193423947467
H           3.24434794109225    2.09592447746368   -0.52863193762923
O          -0.22775109617782   -1.68112519365080   -1.72625222564425
H           0.08606936707582   -2.45195545322137   -2.20120992431683
H           0.14186099141892   -1.74117774320299   -0.81222912686144
O           0.35027430341388    0.96401201850466   -1.31565649713082
H           0.03863246672385    0.80643648663429    0.14577402002705
H           1.32856185133069    1.09515850905867   -1.25598663449462
H           0.20995583862949    0.08055288920623   -1.69741897026466
O           2.93145880180135   -0.34896023603420    1.39009982983878
H           2.57125324153144   -0.13940758760102    2.25924254990478
H           2.33008444828598   -1.02875461512310    1.05233907555246
H           3.02811476597431    0.65181222768102   -0.00534476335294
O          -2.52690430066993   -1.06034695074239   -0.32476260103553
H          -1.85982014461795   -1.35495163076979   -0.96766316649127
H          -1.94556709892665   -1.16923408067755    1.02425851057602
H          -2.62768777521451   -0.07780235468431   -0.46320911826052
N          -2.49513404012381    1.59817386543783   -0.58624069587864
H          -2.25015091902988    1.89659288418087    0.35021944232256
H          -3.26399795417574    2.16837244577043   -0.91375321244516
H          -1.68907471105956    1.77323024208788   -1.17619154511196
