    26
        -50.45652769  Gyration_radius:  2.4634760221 Dipole_moment: 4.621
 S           1.51040429872926    0.88720145763983    0.66658974831370
O           0.42875781452879    1.74771229321870    0.20967900290455
O           1.26541004216589   -0.52772085377986    0.09506800675415
O           2.81900941498583    1.30852831604333    0.31063290644980
O           1.40038419011958    0.70947064586423    2.17584193547396
O          -0.06899453842019    0.02418328411270   -3.27195761831451
H           0.42789344536560   -0.57199609010617   -3.83417691033749
O          -2.08194831254830    1.14104725023846    0.47025750229884
H          -1.16408972412306    1.49081635889963    0.36714762118239
H          -2.67332173772765    1.88981076035593    0.38111425103109
O          -0.91054626647966   -0.17602737923421    2.59872551878381
H          -1.50441798447843    0.27237673249294    1.97317233880026
H          -0.83143110085288   -1.11675323838843    2.27728193546157
H           0.44489585236173    0.37362674905523    2.42211533276145
O           1.66817269983495    1.76805037152504   -2.17697584020980
H           2.50327315013524    1.56070631825639   -1.74252955248102
H           0.56898131038422    0.70342995133417   -2.96254381858269
H           1.10203180993940    2.06750806737772   -1.45052940830476
O          -0.99492689871872   -0.91228474202326   -0.98009016226896
H           0.33255144710267   -0.68133196684196   -0.31399422290703
H          -1.58606867721538   -0.24135646841312   -0.59748346692562
H          -0.77022099882359   -0.60492596115792   -1.89264137930738
N          -0.54591347716871   -2.57568689775592    1.48198000536551
H          -0.95929784782080   -2.47829058006840    0.56107356443094
H          -0.83964826387678   -3.46045527748080    1.87493907442282
H           0.45906033258185   -2.59763908112191    1.35730363520654
