    26
        -50.45652781  Gyration_radius:  2.46356020817 Dipole_moment: 4.625
 S           0.72907842114208    1.72420361849536   -0.08003069106001
O          -0.37121446581703    1.46475514522427   -0.99727795721636
O           1.81291254919745    2.46636234813954   -0.61963215923530
O           0.18485225499201    2.40814594223454    1.16807277478700
O           1.25545368513626    0.36270870491589    0.42738489042103
O           1.05427615662163   -1.87086068978995   -2.46914037755251
H           1.90127590553840   -2.31853782547644   -2.49272778604967
O          -2.38376868655457   -0.06733271862669   -0.41272372976081
H          -1.69422478142476    0.57122756511838   -0.71655293925978
H          -3.14492562140443    0.05841970995495   -0.98107819630108
O          -1.60568608887077    0.89088610822213    2.06085648648322
H          -2.07298536560137    0.52110196252745    1.29289539096469
H          -1.06861351597203    0.14254733245324    2.44281698160453
H          -0.59112790256454    1.84084810426807    1.57031814148560
O           1.50288464237584    0.76545415296479   -2.79518809535377
H           2.14914377840349    1.30646098977557   -2.32751163436188
H           1.23605147905229   -0.93018784947601   -2.68419739322335
H           0.65311410146213    1.07843145261294   -2.45191295340493
O          -0.16879169674801   -1.65348909249348   -0.13581088595445
H           0.65361979034886   -0.44693674572810    0.21763075163086
H          -1.06366020437857   -1.30727847086133   -0.29560387372948
H           0.21942106093026   -1.85617307315650   -1.02227655327937
N           0.00614233625020   -1.10299384331774    2.81339369579044
H           0.91986538505202   -0.67220222757300    2.73902668346111
H          -0.07033759114176   -1.77402681068347    2.05690566821371
H          -0.04275564600787   -1.60153378973331    3.69236373089739
