    26
        -50.45059453  Gyration_radius:  2.46318386386 Dipole_moment: 4.137
 S           0.13525474783947    1.41260930412092    1.41058964415640
O           0.97001384741515    1.19385405306085    0.24477164108503
O          -0.05903430529586    0.04364789216945    2.11938953552493
O           0.61429622810338    2.36147390843221    2.34404163419667
O          -1.28257315858347    1.75978710648368    0.92669473502279
O          -0.86404130703284   -1.20048628631257   -1.70330283979637
H          -0.97238055930199   -1.81534643515611   -2.42935189389080
O           0.79733916638727    2.72777294916646   -1.94244226135009
H           1.07469213340785    2.18801417736230   -1.17776600542478
H           0.93996432391699    3.64299736526331   -1.69640442080655
O          -1.50050851816427    1.43087200856658   -1.54561695081471
H          -0.74833494057415    1.95960529073326   -1.89238595006211
H          -1.27720893035954    0.49594223639482   -1.72957556669643
H          -1.38428731437051    1.63980908267272   -0.10737922196768
O           1.55477039426258   -1.20979857905877   -0.86032728935679
H           0.11393015964453   -1.23409108988288   -1.43939253172850
H           1.55550619525687   -0.30072812783046   -0.51527590850340
H           1.58772398020786   -1.78404291912098   -0.05998275209247
O          -1.92897309201481   -1.04844511272924    0.74020904523009
H          -1.59284115314635   -1.21007631543891   -0.16949994452404
H          -0.78003131888966   -0.44245084745530    1.61273730101040
H          -2.58304159131517   -0.34747068269164    0.66978315181416
N           1.44541493099565   -2.50377439742578    1.53691613251641
H           2.30640466742019   -2.83352440473244    1.95442357024583
H           0.74836610537437   -3.22991242064205    1.64428341865841
H           1.12957930881372   -1.69623777594689    2.06486372755398
