    26
        -50.45652733  Gyration_radius:  2.4636113045 Dipole_moment: 4.619
 S           1.41791678460096   -1.10587278646307   -0.52940489042731
O           2.40213399937568   -1.99639102424459   -0.02449647859723
O           1.87163820690990   -0.50734339362738   -1.85528956764481
O           0.08653174027590   -1.67109267081338   -0.69443249198599
O           1.30419061307706    0.10796562486302    0.42033217852746
O          -1.18597677625346   -0.87237832858709    2.92353732936295
H          -0.79278652821611   -0.63440707478293    3.76450495125837
O          -1.99064990387305   -0.25961635724349   -1.35322019653350
H          -2.72109515634603   -0.77869814648852   -1.69288909226881
H          -1.26195142529098   -0.89444636589524   -1.14972583402421
O           0.09296683678078    1.13965922089295   -2.51012766655404
H           1.15439465927522    0.16479535769613   -2.20085705400122
H          -0.76082577914265    0.75146878274726   -2.25427878586021
H           0.25874770674185    1.88605972290403   -1.86993591222246
O          -1.04750695132081    0.88167255854049    0.95131513357980
H           0.34388539389465    0.43208822239921    0.60634147772434
H          -1.60318003394757    0.55870476960399    0.22135137215503
H          -1.21997885370979    0.28797701285008    1.72308813636059
O           0.39904533188067   -2.71611183754685    1.76376087224642
H          -0.64428495435953   -1.60983755481223    2.56750357897957
H           0.06708844189526   -2.61476636855207    0.85961263521858
H           1.35636793885884   -2.67663511451060    1.65950607883048
N           0.56240524387831    2.91411748858798   -0.56837026028721
H          -0.14974026080393    2.70757141873304    0.12345095324575
H           0.61512934815156    3.91753194031956   -0.68672564943642
H           1.44553441765168    2.58798490344225   -0.19455080764661
