    26
        -50.45652777  Gyration_radius:  2.46354400513 Dipole_moment: 4.624
 S          -0.32995304372393   -1.83908821359669    0.14426632951146
O          -1.16264412796466   -2.15813430431245   -1.09119140990554
O          -0.41249588987650   -2.89914791252921    1.08558724821395
O           1.01640609658817   -1.47374310479726   -0.27182136751681
O          -0.99947421664864   -0.58168588589582    0.74353163975992
O           1.67156792751630    1.13197742645077    2.57591891195428
H           1.28458019624641    1.35082539878547    3.42488606344731
O           1.53584737767088    0.57476547539274   -1.77964417166636
H           1.44580021512654   -0.25242768625942   -1.24756410084826
H           2.40118125288015    0.54518111566613   -2.19026780772810
O           0.23970953579555    1.60024048786820    0.40411283242081
H          -0.50122400896825    0.30420729298801    0.57481335036725
H           0.82400079077033    1.55542382059550    1.20059274104615
H           0.81191551784021    1.46044172858260   -0.36990230799344
O          -1.02085124785808   -0.12728354568602   -2.56065951176679
H          -0.11388701486430    0.21424756265910   -2.48485589967820
H          -1.11680883892346   -1.36160987632637   -1.76179092183738
H          -1.60067645948784    0.52048894117816   -2.07200239116478
O           1.67176457951268   -1.55100600984020    2.33532023529942
H           1.78371383967739   -1.58889631504641    1.37410305864738
H           1.74693913277927    0.15320911065862    2.55400393422194
H           0.93413688342943   -2.14882743541630    2.50125070009145
N          -2.42396300303693    1.51180115540205   -0.98490968094346
H          -1.71261662544257    2.04785663104601   -0.50006887755362
H          -2.82139289851133    0.86654523959759   -0.31279636697087
H          -3.15157599055061    2.14463892281255   -1.29091223941302
