    26
        -50.45652764  Gyration_radius:  2.46365901994 Dipole_moment: 4.622
 S           0.73121346999344   -1.68790515032191   -0.36074804853218
O          -0.28107357079978   -2.33150838611017   -1.30038507506002
O          -0.12498127289530   -1.11638060043373    0.79196617156842
O           1.61523274845599   -2.66819226084760    0.16294610437959
O           1.36773855479126   -0.57001955500226   -1.04212421424315
O           1.83102236298631    1.67908754913658    2.13099858842657
H           1.81182869281921    1.55761019249863    3.08145830044757
O           0.06716755976412    1.51071878626811   -1.89004089811388
H           0.54229702345495    2.02530201096754   -2.54411202937647
H           0.64720710020803    0.74701427988996   -1.65405592284819
O           3.05557781729676   -0.46253481644217    1.04900541425437
H           2.36333306319674    0.93660468011761    1.77119697790363
H           2.87694389590313   -1.39062324564347    1.23825215458723
H           2.72934689000850   -0.34791986955740    0.14438641319976
O          -1.83816513307248   -0.48906836095647   -1.99770717933061
H          -2.37388956351558   -0.34753875309748   -1.16864479304422
H          -1.29836188436609    0.31181447580786   -2.10818542644929
H          -0.94090819007390   -1.60715259783764   -1.65464067547478
O          -0.43490849795230    1.39663991335087    0.79995933222315
H           0.37727941144216    1.63703154980307    1.31029332786652
H          -0.28348542969608    1.68404725085244   -0.11681240561077
H          -0.26830440592492   -0.09630239560401    0.76897076565184
N          -2.99565722498720   -0.12021896831814    0.38227705200734
H          -2.67397783974187   -0.92915228260824    0.90013750095613
H          -3.98811875194366   -0.00940384186898    0.54454959674948
H          -2.51435681536040    0.68805037594496    0.76105895789639
