    26
        -50.45652760  Gyration_radius:  2.46329218875 Dipole_moment: 4.623
 S           1.35537056219731    0.69832718663170    1.08939088451515
O           1.52960380996482    0.90866143409169   -0.34058003925340
O           0.29030957444461   -0.40503882029632    1.28081124864243
O           2.52904231696463    0.33533108748592    1.80167380728102
O           0.72461826846292    1.94289181190466    1.70153843033857
O           0.91328535541779   -2.80672786292533   -1.41274857391871
H           0.89722931633953   -3.66240121200488   -0.98142516840093
O          -0.44629468493357    1.33372198427924   -1.96973648212687
H           0.37690041772245    1.23064969690224   -1.43374036543001
H          -0.18293915393807    1.71698952535951   -2.80765042946010
O          -1.39769258294953    2.34126492993942    0.42109141204017
H          -0.15012513969920    2.18338339793895    1.18810525671568
H          -1.21333635408492    2.12124030754596   -0.50772796061024
H          -1.98442053481458    1.61207268355682    0.76565042248967
O          -0.99050211704520   -1.08011196475107   -0.79657831893599
H          -0.92166153994807   -0.32497242675769   -1.40571974051600
H          -0.36484800271098   -1.77026515068506   -1.12839173952525
H          -0.24456608305485   -0.65106105776591    0.43528541024836
O           2.93561108431722   -1.38375947563215   -0.34425886446444
H           1.71249803768357   -2.34606652808938   -1.07625444885530
H           2.63451469098805   -0.50796789262105   -0.62753960970547
H           3.12963089061109   -1.26470228019299    0.59232608714699
N          -2.71637615450790    0.19368461869034    1.30783804624195
H          -3.67725587249120    0.18087374356362    1.62423229062686
H          -2.12367382979194   -0.11670317938314    2.06837421408722
H          -2.61492226514119   -0.47931455677822    0.55603425085395
