    26
        -50.45652765  Gyration_radius:  2.46346154312 Dipole_moment: 4.628
 S          -0.28776378830770    1.84387533412448    0.17334168972853
O          -0.49596417916977    2.86680981378589    1.13618554560436
O          -0.88537772638200    2.24706633949183   -1.16901471956980
O           1.09719403492875    1.44182529763819   -0.02516411791187
O          -1.09118168336007    0.59108706375717    0.59009553951671
O           1.16804718024384   -1.30574694529117    2.76443279422770
H           0.63675877042654   -1.54515882400573    3.52522715879008
O           1.79821288583576   -0.56235727131276   -1.51862011142911
H           1.64583193721904    0.24508533098308   -0.97057012778704
H           2.72073421041389   -0.54931320274513   -1.77759981671244
O           0.11392824423301   -1.62404784197858    0.36163894033629
H           0.55419013610848   -1.63645187723715    1.24696174426283
H          -0.60128990572069   -0.30681880654965    0.46575249232298
H           0.81491686096261   -1.47600606705894   -0.29620810311189
O           1.29563835644295    1.38318892895580    2.65653563983401
H           0.56026874267056    2.00307908906447    2.72092928890890
H           1.27662906683040   -0.33069791088944    2.80286239177495
H           1.57426256125805    1.45636548874218    1.73198805879317
O          -0.56257095528718    0.27366450427417   -2.68725501777087
H           0.30595935206024   -0.10773465668108   -2.47459581586666
H          -1.23894014473010   -0.36910300790202   -2.33502173553284
H          -0.75230615252240    1.47727706425599   -1.85890452878314
N          -2.26918024140406   -1.36885175207372   -1.45135503415606
H          -1.66974923004832   -1.95352516897320   -0.87929114049441
H          -2.95477928351012   -1.95779448044287   -1.90599414314312
H          -2.75346901918412   -0.73571645193659   -0.82635688179755
