    26
        -50.45059453  Gyration_radius:  2.46318509555 Dipole_moment: 4.137
 S           0.62989126383707    1.20802437090281    1.46541674825470
O          -0.87679207267073    1.45848090292823    1.64461147772835
O           1.40170909190439    2.06486782316749    2.28472927368494
O           0.80326802561705   -0.25954185158274    1.94540329640042
O           0.92949786547683    1.24898026276227    0.04684095803830
O          -1.42378051689537   -1.04005491157309   -1.40717734834867
H          -1.78855757426501   -1.55575192957233   -2.12685151859126
O          -0.18590285599869    3.04409709314932   -1.59632881881761
H           0.40230591906854    2.43735205085220   -1.10758627062370
H           0.00167490009000    3.92618322777448   -1.27190329179300
O          -2.06279990803357    1.45560768947177   -0.56024021751165
H          -1.89020313138567    0.58643047373815   -0.97561825201644
H          -1.38331473730499    1.47341115209669    0.72959065794381
H          -1.54116817510197    2.10838563634895   -1.07730417466990
O           1.12668160807632   -0.89614054034705   -1.59641340224393
H           1.50786898032055   -1.56915853381582   -0.98556601337820
H          -0.42238234765204   -1.00051818339698   -1.55832028994808
H           1.22511183808817   -0.04983092396388   -1.12785874013807
O          -1.41246804666152   -1.35073361093860    1.24448654674279
H          -1.46692089168665   -1.34514948110535    0.26281325451765
H          -0.03786446441401   -0.74775234108103    1.68660893221658
H          -2.07063310691486   -0.72444602225863    1.55867398077368
N           2.05876500799274   -2.51611079256948    0.38854537240179
H           3.02939058221098   -2.80234331639561    0.37088097745739
H           1.49966197905103   -3.32360953100072    0.63356288159063
H           1.94696076724978   -1.83067871359371    1.12900398032892
