    26
        -50.45652756  Gyration_radius:  2.463272208 Dipole_moment: 4.623
 S           0.92681695546775    0.01776536688641   -1.62857213660431
O          -0.14265879747230   -0.32398687938598   -2.65857899138294
O           0.63605253059899    1.32529767913499   -1.05846384626756
O           0.73877640896067   -1.03792311767720   -0.51554520435817
O           2.22247592670148   -0.13025199874267   -2.19065845946766
O           1.99750596654999    0.55574889071934    2.53118945562003
H           2.56042659305625   -0.10489365821865    2.93752349251141
O          -1.53485746631664    1.85330362698968    0.26368151188162
H          -1.72380635597381    2.78950576237803    0.34209993167352
H          -0.70312997581893    1.77488455756912   -0.26315927917228
O          -0.35773589703902   -0.21786004056423    1.61457706235364
H           0.26563025042288   -0.70012376012778    0.33500879281746
H           0.45698386519704    0.09576651631365    2.07901108795976
H          -0.85937335409434    0.57684083482563    1.36405023562997
O           3.04537790876689    1.16632377733768    0.12587664183277
H           2.44994229576524    0.82877468790161    1.70361446412828
H           3.33682043898634    0.54805445500349   -0.55372010204116
H           2.25163500813551    1.56797672676253   -0.25694954093717
O          -2.33906829995718   -0.15581499037818   -1.45456222048032
H          -2.32241907126603   -0.97351772348223   -0.88372758274174
H          -2.27076296239084    0.59853655101132   -0.84507498070509
H          -1.08771701146354   -0.23858674229540   -2.22685757730952
N          -1.99124599938343   -2.26731331215284    0.14457508654266
H          -1.17822084672490   -2.70973131706581   -0.26685357906242
H          -2.68169389493474   -2.98116355876569    0.33758377521611
H          -1.69575422577765   -1.85761232399025    1.02393198238708
