    26
        -50.45652775  Gyration_radius:  2.46332024114 Dipole_moment: 4.625
 S           1.25911419622074    1.38467472569145    0.08781952657178
O           2.38542554536329    1.92869944492387   -0.58459059934043
O           1.36328466422745   -0.15718415934166    0.07590867644092
O           1.29142069486801    1.75439783577937    1.56562837845414
O          -0.03734143342300    1.74982019453376   -0.46477003117952
O          -0.26969234340397   -1.19475731559635   -3.03405551760114
H           0.33344666146677   -1.82781161942926   -3.42636283692052
O          -2.27769020603684    0.73323991028372    0.36365190625835
H          -1.49281229840230    1.21759751003874    0.01013447176335
H          -3.05059299237426    1.24103239577883    0.11266828986843
O          -0.67328933310944    0.59112259089801    2.60987964218951
H          -0.36767062816792   -0.35808217051062    2.61938323025957
H           0.47537453229958    1.32704303701690    2.05310306859043
H          -1.40161803862304    0.63235229189251    1.96737520753152
O           1.00639027390728    1.17231720191709   -2.87526518828557
H           1.89096457648507    1.33204753436397   -2.52720000779587
H           0.18283595058871   -0.32430902266505   -3.07510421926519
H           0.42547264729370    1.58205612909281   -2.21755915803180
O          -0.77520771176800   -1.40714538387903   -0.44833983897021
H          -1.49849629887568   -0.79406248816467   -0.23120677709358
H          -0.69532494811945   -1.41389478908432   -1.43387734661280
H           0.48102825799521   -0.65605862295652   -0.10986988129526
N           0.24575204761785   -1.90251730591891    2.33440110401622
H          -0.23400960532500   -2.24760320960821    1.51029986793210
H           0.22239918733218   -2.62167388508975    3.04559245360348
H           1.21083658196544   -1.74130084997303    2.07235557891476
