    26
        -50.45652772  Gyration_radius:  2.46369380275 Dipole_moment: 4.625
 S          -1.76458667940617    0.62578296147539    0.09116026411392
O          -0.38172304605363    1.31479190937504    0.12729973724482
O          -2.13825410349818    0.45088053497360    1.55803219994382
O          -2.69119544666258    1.48437966866962   -0.55765587151096
O          -1.59490992280956   -0.68671115351186   -0.51534221868419
O           1.24660128952801    0.33768667042240   -3.00727023466501
H           1.60429762587501    1.15223493348815   -3.36364074199387
O           0.19483110010028   -2.39746483011291    0.26556595628083
H          -0.54937942985456   -1.84471912450337   -0.07511323109409
H           0.02413159029685   -3.29589983309188   -0.02076756969792
O          -1.43108730702085    0.59977359067048   -2.87151037437322
H          -1.92431599454068    1.33967300994634   -2.49955503088582
H           0.26972428387097    0.42320371952463   -3.05723461544672
H          -1.59403485180279   -0.12040720157914   -2.24488260611668
O          -0.32079745885805   -0.95730522303128    2.56768432822102
H           0.43750043399363   -0.31139369255375    2.61454219366018
H          -1.43580232569939   -0.15730400180167    2.02954278464538
H          -0.06983334563873   -1.61751172713361    1.89974330613893
O           1.60223413716661   -0.15487280260799   -0.43482173385096
H           1.59092174211198   -0.03673245239208   -1.41651284036479
H           0.42055849674200    0.70072952422554   -0.07463219652209
H           1.31262302535111   -1.06687450608283   -0.26035569415838
N           1.63254003362842    0.85768627569320    2.39454255232018
H           2.14172558399090    0.58407980160799    1.56129330685688
H           2.30005116568842    1.07616581365608    3.12275501003235
H           1.11817942349281    1.70012812465952    2.16713332991469
