    26
        -50.45652770  Gyration_radius:  2.46352158231 Dipole_moment: 4.623
 S           0.85615001235387    0.91354348154069    1.39452234188434
O          -0.42477820415324    0.05337325850221    1.30638525149272
O           1.69576606244442    0.58396752313630    0.25179015931128
O           0.35970098803963    2.34674398320326    1.24951341465482
O           1.45419106291386    0.72219185808294    2.66824341871741
O           0.69852704319144   -3.19736572725909    0.04354650623958
H           0.27561948328911   -3.83947729874800    0.61565167935918
O           0.83317945705999    0.58029629451493   -2.19666071915384
H           1.52985015403905    0.61347673938922   -2.85378074622117
H           1.27492900414378    0.60001046739513   -1.31346067665275
O           2.32047618814759   -1.67780336757204    1.56590499832782
H           2.10053698626274   -1.25131705261700    2.40181107390284
H           1.35178360680975   -2.72222686629312    0.60177122853454
H           2.41132324926675   -0.93674866700483    0.94907500061150
O          -0.79092355271884    2.45596254626038   -0.97936201987367
H          -0.10134573384799    2.46779751155196    0.32266794549486
H          -0.27523762990716    1.90411555587407   -1.59139481810679
H          -1.63376631016938    1.95398600283748   -0.79965078692786
O          -0.77053165653727   -1.19783233073930   -0.86775917811577
H          -0.56970155772421   -0.42831391716732    0.40727070341664
H          -0.24786017193726   -0.71845728913936   -1.53340763764942
H          -0.26153439434620   -2.01498291208799   -0.64216253893546
N          -2.86479114683260    0.89398355634083   -0.34914165385547
H          -2.77468326682166    0.82243075857648    0.65722522538169
H          -2.61315965809188   -0.00874521638259   -0.73671480294485
H          -3.83371999487611    1.08139108779481   -0.57188336890385
