    26
        -50.45059460  Gyration_radius:  2.46316293126 Dipole_moment: 4.139
 S           0.99604700671255    1.24424960131408    1.20985339703343
O           1.27222881709111    0.88315155126561   -0.16750317641726
O           0.71253411153684   -0.06526617059552    1.99660195261382
O           2.00790129666121    1.97979793718483    1.87036756825455
O          -0.35563465135301    1.97646306420703    1.25170993576449
O          -1.69727289439504   -0.83235927937822   -1.23070786301177
H          -2.21504211448657   -1.35450520278455   -1.84406977485523
O           0.74530537027961    2.53300081308976   -2.20874999076022
H           1.12314990017014    1.89621344181675   -1.57256248422436
H           1.20242645692871    3.36344066715900   -2.06761908463163
O          -1.51650827617862    1.86017656184172   -0.96338240376720
H          -1.62878960298918    0.91166412107159   -1.17672041093873
H          -0.84601535140853    1.94758669986186    0.32823748127029
H          -0.82563400206058    2.19338091953959   -1.57758944217650
O           0.76854671646069   -1.52145349791941   -1.30975795130610
H           1.13208288245683   -0.66570256440553   -1.02514924781427
H           0.93071143941905   -2.12982427850878   -0.55148504706561
H          -0.73553887298042   -1.13530613275051   -1.33320951855711
O          -1.74272747154133   -0.55024192047220    1.42380821812759
H          -1.80758485853046   -0.74066605979711    0.46140936595175
H          -0.24235190129410   -0.31638933707091    1.80180834262666
H          -2.16905509078854    0.29989597617556    1.56395181320545
N           1.17983392311635   -2.87906644603999    1.01852392005874
H           0.40044278326825   -3.40211062916393    1.39755927985452
H           1.29865162371532   -2.04930444560293    1.59121060626746
H           2.01229276019186   -3.44682538003794    1.11346451449651
