    26
        -50.45652749  Gyration_radius:  2.46367445792 Dipole_moment: 4.623
 S           0.27820305436172   -0.19561173568257    1.84322702761016
O           1.44977483243753    0.18762301420175    1.06879117228230
O           0.11933339897797    0.47600480150484    3.08434312626415
O          -0.97182024251843    0.05841760875212    0.97073319121429
O           0.29275837744339   -1.70484983931530    2.05274129346591
O          -0.23790077442813    3.15005189350180   -0.85913236083033
H          -1.02770735273723    3.68486662618304   -0.76658564862503
O           1.90220530348753   -0.65533163331533   -1.34458211365031
H           2.81291597535197   -0.55669092608990   -1.62607093295494
H           1.85331277241622   -0.31657605157806   -0.41812561986035
O          -0.53207434043949    0.59415069393001   -1.46441196194118
H          -0.41899667869706    1.57252724121545   -1.37577252900504
H           0.34764736142895    0.22844412830018   -1.66023370650413
H          -0.78235234149933    0.24730455500628   -0.02448144367081
O           0.77349395448376    2.73529637482575    1.60296471280154
H           0.16116650174526    3.09433277038438    0.03626294298577
H           0.29348589958931    2.44274923924978    2.38591994797214
H           1.33226219544937    1.97594936129310    1.38149102638871
O           0.42528625190873   -2.71494632913954   -0.24233100398976
H           1.01297638464125   -2.14680888612484   -0.76854897137347
H           0.38158202242962   -2.18582074868386    1.13275961955162
H          -0.49560051690854   -2.55537824497359   -0.59029184598825
N          -2.01354339629337   -1.98994018871488   -1.05806976629251
H          -1.84351629933535   -1.16259112040471   -1.61936142433187
H          -2.44115394673881   -1.68132712852168   -0.19323678496251
H          -2.67173838655986   -2.58184547579444   -1.54799794656652
