    26
        -50.45652760  Gyration_radius:  2.46331692991 Dipole_moment: 4.624
 S          -1.35386372395566   -1.11987111577450   -0.65175255337617
O          -1.60177907940820   -0.60612767239867   -2.06458419738350
O          -2.41981749103857   -1.96064921443838   -0.23523191699973
O          -0.02586856493907   -1.71295491241610   -0.58856682887272
O          -1.34737295551514    0.15373340419879    0.22381862533632
O           0.74196125502541   -0.68813055377623    3.11202743844124
H           0.24093107281325   -0.38838742002856    3.87199162433078
O           2.15442494881492   -0.37717357416624   -1.03695246250690
H           2.91436273826634   -0.92812700562140   -1.22983149244750
H           1.38986274401240   -0.98696756112576   -0.89810412987020
O          -0.70716000492523   -2.58449819885825    1.86281120294631
H           0.23813172780295   -1.44025822405354    2.73176470754672
H          -1.63837634361795   -2.53617824559392    1.61885049484936
H          -0.24665696332099   -2.55167388342516    1.01151832182188
O           0.92361243780875    0.93082330900749    1.03055884305778
H           0.97219129625766    0.38835741217492    1.85586782197331
H           1.56840771313784    0.55141072839219    0.40907743005017
H          -0.41571924083731    0.47696791368118    0.52225910844327
O           0.28813614748618    0.96792123689991   -2.56751180550774
H           1.08819095994921    0.58620659369689   -2.16830948954544
H          -0.82738574560076    0.03144390110619   -2.34848877659139
H           0.05089892008083    1.75812287784176   -2.00716330912176
N          -0.41058223827644    2.87499521491036   -0.83188365130635
H          -1.34337328978999    2.58368853106657   -0.56525381658852
H          -0.42693280476578    3.86850348649186   -1.02225304167346
H           0.19377644452760    2.70882298218984   -0.03465814700615
