    26
        -50.45269166  Gyration_radius:  2.57777123442 Dipole_moment: 4.549
 S          -0.19811430455086    0.42145644079435    0.83302192243756
O           0.89319919607887    1.45670689602748    0.56748727850268
O           0.20242253299224   -0.43027243320634    1.92537734827236
O          -1.46482967651347    1.07507865275802    0.99563424255424
O          -0.21012576773729   -0.39721996849544   -0.46731604640376
O          -2.19922314721408   -1.59465573974719    2.14030757910302
H          -1.27991043738113   -1.28615430088717    2.23436381280336
H          -2.75259599218814   -0.85136412235252    2.39275131471944
O          -3.66818363733514    0.57324947884813   -0.44097974003411
H          -2.94976065024317    0.88129154479104    0.14556156964489
H          -3.76274132749381    1.23540165644973   -1.12726029007219
O           2.45214572703953   -1.06690651830156   -1.13997158891130
H           1.49051492736451   -1.13375660443174   -1.08000102604379
H           2.61212615921132   -0.23849333535499   -1.64503457064815
O          -2.30074699310470   -1.70641002864975   -0.49653153168108
H          -2.96853396965934   -0.99815592977157   -0.64239202297723
H          -1.10608726369788   -1.01156947409945   -0.53954978092203
H          -2.35942306608350   -1.91019754785979    0.46925050133274
O           2.79143088653708   -0.00646947213849    1.21506348640782
H           2.84509384209359   -0.52227415729998    0.35855438858455
H           1.78103758463229    0.95704238200270    0.84576683730407
H           2.22902895068562   -0.52060785974029    1.81076677188290
N           2.51509128145128    1.49892283071170   -2.07726982718717
H           3.38975938260258    1.98501760275355   -1.92409886563385
H           1.85937668719363    1.81506912656174   -1.37002211487493
H           2.15904907532265    1.77527085064480   -2.98347967816611
