    26
        -50.45059459  Gyration_radius:  2.46316342494 Dipole_moment: 4.139
 S           1.54479832032635    1.04659848372939    0.72264533311467
O           0.45965930042865    2.10665704919858    0.97500012518322
O           1.19679688237232   -0.06610684286323    1.74975971586759
O           1.34419723349778    0.50170196160974   -0.60650096346659
O           2.83846269450679    1.54994102402856    0.99510270772179
O          -2.11209766073247   -0.46988347548906   -0.63759693765121
H          -2.88248296321138   -0.89266882032319   -1.01798339960491
O           0.66926804725212    2.03838891149353   -2.69204102880420
H           1.32409836710825    2.73018244853173   -2.79754251566589
H           1.05135997579939    1.38593406603237   -2.07453562316844
O           0.01403957376942   -1.78236708923556   -1.20176863344663
H           0.62633935936258   -1.02870480837126   -1.15122990026025
H           0.23439172748312   -2.34005814225771   -0.41958016017903
H          -1.31021477282613   -1.02117888357778   -0.92091529473199
O          -1.36485892397293    0.05571610145571    1.87109230320040
H          -1.73186352212539   -0.19835254155335    0.99505770279386
H           0.19395683378429   -0.07625043575546    1.83353478401242
H          -1.53155881375403    0.99672753861322    1.97519596446613
O          -1.25735383259657    2.09516358632913   -0.84696498249455
H          -1.63642685217398    1.19334073894948   -0.87554836792189
H          -0.25770194912157    2.12236888175721    0.21391605432468
H          -0.70372754787513    2.17921073491419   -1.65443964497818
N           0.72588805266460   -2.98158763851571    1.14094279447208
H           1.18226742273668   -2.16274288469820    1.53056127935717
H           1.40070266578460   -3.73558807193617    1.11944106253607
H          -0.01793961848849   -3.24644189206511    1.77439763532363
