    26
        -50.46515674  Gyration_radius:  2.51559360442 Dipole_moment: 4.768
 S          -1.17610432285566    0.45512840649799   -0.05788492394478
O          -0.11604151055824   -0.03896497807913    0.83658665457308
O          -0.70337439489254    1.68524555517474   -0.70733184476608
O          -1.57959135738309   -0.56456068759932   -0.99696216480073
O          -2.39984528584196    0.82066685006438    0.81756076319342
O           1.23199487977234   -3.28918590729379   -0.89964175996678
H           1.08269707056322   -4.17679989806366   -1.22868018176957
O           0.75783484906684    1.85969348900283    2.41521353901209
H           0.72627009109737    1.54180376198273    3.31923284262650
H           0.46765977691316    1.10593890626896    1.85093083458255
O          -0.81015694050840   -2.60840627646123    0.65611709612604
H          -0.46759928240633   -1.75449560614229    0.97520256318329
H          -1.46711534935452   -2.33865145151923    0.00107538153329
H           0.52000802612715   -3.11929463623501   -0.23304123731794
O           0.62017081811974   -1.18390534487813   -2.38813330637562
H          -0.28299343072710   -1.00722816338266   -2.04715426126325
H           1.35322935951863   -0.08824847113372   -1.73733014693686
H           0.91143350838122   -2.01366347792260   -1.93463980657225
O          -1.43992727922427    3.12534059819465    1.47627964066285
H          -0.62693517756555    2.86436390165562    1.95735797971075
H          -1.17500145819080    3.16603766975617    0.54725659851096
H          -2.19447671551603    1.72411633798656    1.19617895082536
N           1.67137349564513    0.76921377735577   -1.11249465445064
H           2.41795081980084    1.31931245247824   -1.52446476712361
H           1.91759210750350    0.42421827004453   -0.18578250117308
H           0.76094771240550    1.32232494230928   -0.99545130801604
