    26
        -50.46515678  Gyration_radius:  2.51576568626 Dipole_moment: 4.767
 S           1.20057164991735    0.38748268044108    0.01720152488424
O          -0.15128993224425    0.67019612326981   -0.49319080639616
O           1.67436652531632   -0.89363844656684   -0.45051014877914
O           2.14917519553527    1.48370825951607   -0.52662715190170
O           1.17899192709574    0.49683244010665    1.48212766284726
O          -1.48422593351244   -2.78991848944995   -1.77860755334259
H          -1.40749538962968   -3.54109254425857   -2.36874821928891
O          -1.09427015141933    2.90257408970323    0.50118859975582
H          -1.39375649455593    3.45528845885486   -0.22278012487626
H          -0.79188522332681    2.05848680273254    0.09279500054352
O           1.47643990067886    3.19107401026942    1.28978211512279
H           0.52318561765249    3.31054053059554    1.09632903425402
H           1.51490886731221    2.42529941003771    1.87886361631980
H           2.00919139234306    2.27518120568999    0.06982752154496
O           0.08216394511445   -0.84274247254596   -2.67821646706350
H          -0.17841855722293   -0.14730096793543   -2.04835285173392
H           0.94366913113227   -1.11952781713745   -2.33963906905656
H          -0.98793552424194   -2.04948621805712   -2.20933222670022
O          -0.07769549305901   -2.69609648174058    0.46522981519173
H          -0.75947271205774   -1.65302246072239    1.24499716888048
H          -0.63885990298551   -2.84800139268980   -0.33540048735735
H           0.69689362557396   -2.18608910916942    0.14410942968858
N          -1.08886871380504   -0.70531763989773    1.71448584559993
H          -1.56391332868149   -0.83325468339174    2.60198577695705
H          -1.66046678713295   -0.19118750450902    1.04559601136034
H          -0.17100361375355   -0.15998779314736    1.80688599355348
