    26
        -50.46515675  Gyration_radius:  2.51575258984 Dipole_moment: 4.769
 S           0.02525657325543   -1.26111654514217   -0.03250010078562
O          -0.33208344032337   -0.08186264145057    0.77345811427081
O          -0.33339160619484   -2.52212101537040    0.79133552738879
O          -0.72797259436747   -1.29577127683008   -1.26377085793499
O           1.47916638832716   -1.25944159588829   -0.24347065544145
O          -2.23053248859995    2.29396965535951   -1.70744833992116
H          -2.96812972861447    2.45997819987329   -2.29637374940098
O           1.16290680038893    0.09147744537055    2.91724184810340
H           0.56930019031536    0.07674785704733    2.13100914680244
H           0.58997172469242    0.18489602234498    3.68032896249842
O           1.83727108702126   -2.42311781591523    2.18607387552610
H           1.73100627966652   -1.56319775377970    2.64406376216128
H           0.42283100055656   -2.64163722015782    1.43607119477871
H           2.24996646860641   -2.20298434214309    1.33985850443209
O          -0.10555450039352    0.96025332902964   -2.56022274263354
H           0.91500843630992    1.27245751796646   -1.54958278409429
H          -0.35911588079486    0.05780240433183   -2.26950485870241
H          -0.88497105083768    1.53082800175996   -2.34568761612216
O          -2.79525759424989    0.16636704592866   -0.22128799266049
H          -2.57380191436010   -0.55325224411866   -0.82674735157232
H          -2.01975484344098    0.19309300149775    0.36699069125012
H          -2.52607158752300    1.57779185239582   -1.09114480523599
N           1.59183283219234    1.27943677628002   -0.67258142928744
H           1.74044695151490    0.23491882481090   -0.48507408920352
H           1.08158797292770    1.64440672292760    0.13048719340970
H           2.46008451389941    1.78007778387949   -0.83152143765832
