    26
        -50.46515670  Gyration_radius:  2.51584050982 Dipole_moment: 4.765
 S          -0.41102369238186    0.89992396075260   -0.78185172020870
O          -0.99436395774141   -0.10299359668786   -1.68308256341080
O          -1.29917838583410    2.16672231823574   -0.84287020913200
O          -0.46509411359481    0.37996513127491    0.59456826752052
O           0.93602934698158    1.27393480911308   -1.14257887014225
O           3.26936055813548   -0.39590938770036    1.52323897645877
H           4.16960592332191   -0.09596391137587    1.65701459138930
O          -2.86793355589996   -0.47482711583320    1.19080007145305
H          -1.94685126156734   -0.16668948795391    1.02523683240140
H          -3.14260163223593   -0.06126660733343    2.01104129771837
O           2.39381635587727   -0.95743327566651   -0.91417147896570
H           1.17591980599267   -1.74156185010893   -0.66430427259875
H           1.99228363159142   -0.09090126847693   -1.14025307546750
H           2.81922794035692   -0.82400945550212   -0.03088194594980
O           1.67194358774466    1.72524018198098    1.45641266724328
H           2.69446351670015    0.40322499063134    1.62707319822312
H           1.79311234135467    2.02623348844752    0.54637734233808
H           0.81779279651719    1.25969622070256    1.41267187646699
O          -3.48488309385310    0.81727785184245   -1.10303874292291
H          -2.95746776407953    0.27183342151455   -1.70233671296099
H          -3.50197140010561    0.31828493233571   -0.25976246564626
H          -2.23749201938713    1.82895830626942   -0.92936593108730
N           0.13804629398877   -2.08913613611387   -0.49351916041462
H          -0.43709891894398   -1.40138954251572   -1.08044731847687
H          -0.10948288143095   -1.91178516331306    0.47896199134972
H          -0.01615945157047   -3.05742882448459   -0.75493263500842
