    26
        -50.46515666  Gyration_radius:  2.51607395863 Dipole_moment: 4.764
 S           0.69519297997337    0.50989159445641    0.91907844476171
O          -0.17412957815160    0.79330729726746   -0.23495686123355
O          -0.10135540444130   -0.17376393864986    1.94695834776947
O           1.86480838812204   -0.23506576088532    0.51702439716415
O           1.16092902234279    1.86601864397370    1.50334703812875
O           1.07846726571916   -1.63427538634068   -3.05495278585241
H           1.77605518859500   -1.93803789223299   -3.63755576011473
O          -2.38447437790904    1.98197952500643    0.51489445766671
H          -1.57247559812595    1.54053750914948    0.17351532034057
H          -2.49527446299667    2.77629428887843   -0.01050212691342
O          -1.02057826935599    2.22416586613603    2.83682847222492
H          -1.67968783446976    2.27055187055472    2.11303820185922
H          -0.93573560453950    1.28137424585952    3.03375175789809
H           0.39813204576901    2.18881106385391    2.06546444386387
O           1.78233061920069    0.72060084044755   -2.04792468228718
H           2.37351582248250    0.45233743835821   -1.33238996422680
H           1.31726617889756   -0.70841883731632   -2.79860885660190
H           0.95703987534061    0.92620278542908   -1.57375589673341
O           0.94664849509453   -2.50683584581492   -0.55618977296864
H           1.44235125991645   -1.78573688886978   -0.11173520046565
H          -0.42202634070320   -2.15887218464045   -0.14871490802447
H           1.00383956926354   -2.30373459897952   -1.52288709103047
N          -1.33338767511434   -1.66975747389956    0.24800236772172
H          -2.06625833953227   -2.32188939338110    0.50736398180122
H          -1.65640030804376   -0.98210279650812   -0.43114480146029
H          -0.95479290732159   -1.11358197175826    1.08205147663426
