    26
        -50.46515670  Gyration_radius:  2.51574631441 Dipole_moment: 4.764
 S           0.54643921034599    0.50208690168139    1.01979309879454
O          -0.04235189809005    0.78874738044207   -0.29890971978103
O           1.69246351099115   -0.36759791139648    0.89829505836395
O           1.01909051953460    1.84540279517591    1.62757819562730
O          -0.50345483618762   -0.04209635900022    1.89157012624581
O           1.49820749987981   -1.91033869376138   -2.69668169823638
H           2.26443591985007   -2.31146439437721   -3.10938584011729
O          -2.22997802436866    2.21088640508829   -0.07203495765163
H          -1.41339070307078    1.67962577857631   -0.21963880916871
H          -2.15459176873794    2.97745311789748   -0.64300509211381
O          -1.33889305325945    2.47904941295049    2.46693630754810
H          -1.83250315947260    2.53717988687061    1.62230323814423
H          -1.38903327993221    1.54688445046897    2.71878550899832
H           0.19517698852356    2.26963074246068    2.00607497690633
O           2.21935100953842    0.43002631374309   -1.66827330046366
H           2.62639413489164    0.15519276397243   -0.83628691973570
H           1.77259230074097   -0.99540490512755   -2.43675890388543
H           1.34070895266589    0.73709977529125   -1.38202418262721
O           0.78193105208767   -2.60936285408218   -0.24286516007574
H           1.24913029576683   -1.90957160548322    0.26236845006248
H          -0.59879489706679   -2.11623907243421   -0.13837804658556
H           1.05093259166545   -2.47287748127845   -1.18520441353872
N          -1.51754179605024   -1.52454363261020    0.04338419331289
H          -1.25805078991811   -0.95322934303427    0.91211822040261
H          -2.34837229500139   -2.09167357398811    0.17664826321636
H          -1.62989750534742   -0.85486588800725   -0.71640858373164
