    26
        -50.46515668  Gyration_radius:  2.51602850437 Dipole_moment: 4.763
 S          -0.75115911808271    0.89550613541927    0.47160418193186
O          -0.86399429434182    1.93120913916008    1.61696857468131
O          -1.86133975366330   -0.02122924027897    0.57969780942311
O          -0.72935790246187    1.63079265596412   -0.80011414672937
O           0.53289163634417    0.19214342007942    0.62756587053227
O          -0.34272431212857   -3.60822622082212    0.17436921400698
H          -0.82041411935681   -4.38843585423407    0.45971272921983
O           2.55351346105818    1.81524632815369    0.24854563434288
H           1.83489107647648    1.15956654139766    0.40459934402333
H           3.14558436678602    1.74358138466983    0.99927113545837
O          -1.51895795869110   -1.81146719242448   -1.37829105817215
H          -1.84002623270349   -1.19290166994977   -0.68728616451653
H          -0.39087860330956   -1.03242570303629   -1.90829136244348
H          -1.11922704041382   -2.56914740675629   -0.88323182491206
O           0.59797327490093    3.67646397287547    0.39956526357387
H           0.09883370533702    3.40084588482889   -0.38126508738219
H          -0.31599100706005    2.71487763712288    1.32096247401943
H           1.45047056913649    3.19753892577050    0.33400984943719
O          -0.44734909264660   -1.79568306867094    2.11312760084440
H           0.14320594545338   -1.12951137910649    1.71854720600620
H          -1.32213041662317   -1.41212756601862    1.96796251500880
H          -0.29798930248493   -3.00942839590412    0.96139083610534
N           0.40786869918923   -0.28723519000287   -2.09243447960641
H           0.68381090687466   -0.21708524126358   -3.06641441256821
H           1.19839919752952   -0.49989417442024   -1.48555615740193
H          -0.02590370513946    0.61702624740105   -1.71501555490205
