    26
        -50.46515676  Gyration_radius:  2.51560370862 Dipole_moment: 4.767
 S           0.09936859462303   -1.25110320503022   -0.13750715951287
O          -1.08012066454017   -1.28177285109107   -1.01282355544317
O           0.78257944469764    0.04063174454334   -0.31774589416926
O          -0.21780389908893   -1.48074480958484    1.25213487920228
O           1.06686088378817   -2.36589027034194   -0.60536571389287
O           0.14306421675020    1.99293821541630    3.02526957818276
H           0.23980159859412    2.06410724710120    3.97605603084555
O           1.19086131790087    0.55544750697847   -2.85325395546837
H           1.06784616024987    0.41484429087497   -1.88587196397268
H           2.11758433754171    0.76929879536660   -2.97454365842801
O           0.48444115087731   -2.04339861362597   -3.10014580366878
H           0.78252819345472   -1.12179209192113   -3.24924440615150
H           0.99190320634882   -2.38032915946810   -1.60332573489839
H          -0.42131595084464   -1.96005923658232   -2.77219038804343
O           1.81354025921553    0.12706985634302    2.14110752344326
H           1.31599514487259   -0.67934738519162    2.32972918480186
H           1.66763179630011    0.24622515718550    1.18568783495058
H           0.86084611797750    1.38307973268007    2.72028836882777
O          -1.81135764242387    0.54159687311352    1.97856916697772
H          -1.17194597757632    1.13862667864566    2.44085507957132
H          -1.86855151472341    1.01054181120427    0.58683380231724
H          -1.32897484682243   -0.30358137719404    1.85106868061320
N          -1.74064837103592    1.15695994276452   -0.50383658168416
H          -2.52371976939020    1.62630494573129   -0.94684551805226
H          -1.59945155452422    0.15548767221012   -0.85809698446010
H          -0.86096225223159    1.64485854984752   -0.66680280187520
