    26
        -50.45059459  Gyration_radius:  2.46316409358 Dipole_moment: 4.139
 S           1.18825045390630    0.71429568430606    1.44282996071689
O          -0.17804179815977    1.07367178500913    1.11438041493354
O           1.27771288722825   -0.83662322033713    1.47166647280319
O           2.08341406989018    1.09370585659267    0.25133439047968
O           1.68922301091752    1.23675370486316    2.65823878840908
O          -0.74202658122713   -0.47026142654714   -2.07764768996501
H          -1.28679012088055   -0.73972069977886   -2.81761978784642
O          -0.78860337243982    3.34698599156791   -0.16063578731505
H          -0.73791396349012    2.56952967803265    0.42757953315614
H          -0.44377726441577    4.08926311704941    0.33799478518687
O           0.71258782783516    1.79094300580883   -1.72415161202984
H           1.52386833644720    1.40033091327880   -0.57751261875828
H           0.12428193382454    1.03982078513721   -1.94211970354939
H           0.13168380292677    2.48389158475232   -1.33950480735440
O          -2.06216957439204   -0.59654943691038    0.11384682924774
H          -1.82051483466358   -1.44304362842364    0.55706582286406
H          -1.55679372796308    0.08604628130633    0.58727137372794
H          -1.33012847968906   -0.51680371596749   -1.25352320572545
O           1.50770682080858   -1.43732167989268   -1.01387076859415
H           1.35880941579942   -1.13752037920261    0.51474672570654
H           0.67956762537716   -1.17817349338169   -1.47615504920008
H           2.19167101456111   -0.83476327957332   -1.31923232283278
N          -1.03920571041180   -2.76551221967792    1.41089029604983
H          -0.22757328368310   -2.27996502911129    1.77979004504830
H          -0.70322128067939   -3.53319175189850    0.84302325386159
H          -1.55201719742985   -3.15578841700537    2.19131465098157
