    26
        -50.46515674  Gyration_radius:  2.51580990457 Dipole_moment: 4.760
 S           0.22838267368754    1.09260242365251    0.58732738004311
O          -0.39262898922690    2.47620580208600    0.89908107622105
O           0.44776342023220    0.39941219888763    1.86397952129030
O          -0.75347114484277    0.32674453772135   -0.19838751830754
O           1.44402490542367    1.30110804193674   -0.16306898530660
O           1.31540009066656   -1.22804367394680   -3.15047981362479
H           1.86855637906189   -1.11394377125742   -3.92463863941309
O          -2.88822898686489   -0.21670649740290    1.21858799817210
H          -2.11327330338847   -0.03985405001461    0.63649821735470
H          -3.66027524382683    0.06755355467857    0.72612171188039
O           2.37799339009656   -1.14217657758482   -0.72441748118651
H           2.22937586773776   -0.19356697979655   -0.52141684732085
H           1.33918448100613   -1.74640380892049    0.12202333782633
H           2.07217044901999   -1.25909350988771   -1.65811875823635
O          -1.76856630429758    1.58639351178493    2.89432211531680
H          -2.35595772044594    0.94097065731868    2.44848164024415
H          -0.96372631049486    1.08996655213725    3.09600047800157
H          -1.00490668393778    2.32296398843990    1.67602028174229
O           0.17017300788589    1.09934063918134   -2.57923996298904
H           0.81410532772539   -0.38118247856912   -3.04283895393240
H          -0.40806748480184    0.80047931953416   -1.85499474342175
H           0.88170872769624    1.55055736756971   -2.10642206434290
N           0.47749309205754   -1.94302684775888    0.78981677532266
H           0.45629131578923   -1.06681401882583    1.40636774054651
H           0.56330698191381   -2.80107908858797    1.32469381496312
H          -0.37682791792757   -1.92240729243744    0.23470168916205
