    26
        -50.46515667  Gyration_radius:  2.51600717459 Dipole_moment: 4.765
 S          -0.04503532902491   -1.10442197624852    0.60545242854710
O          -0.80847824101781   -0.14120973209928   -0.20524514877034
O           1.09445016609261   -1.60841194620632   -0.12404242991255
O           0.31909495745528   -0.46106921655572    1.87502576825620
O          -0.98027608546306   -2.29553551687856    0.92790075604881
O           1.60345377652347    0.82649557786656   -3.14805999995016
H           2.12082271158210    0.57199439574485   -3.91350968428367
O          -2.76637888725760    0.91603539872279    1.17652853545185
H          -2.04998042637065    0.55083538071145    0.60717112028950
H          -3.57882881233588    0.81619966539311    0.67729415732535
O          -2.12582430097223   -1.07310499068823    2.89236278160583
H          -1.54627941234356   -1.98865717140110    1.69436148410265
H          -1.22860271713982   -0.77850195205830    3.09979346082220
H          -2.53784026184588   -0.31402951330073    2.42925091872594
O          -0.06803352448661   -1.15243687029000   -2.56087871754232
H           0.91430064332531    0.12470652719391   -3.03585177020369
H           0.51072730558535   -1.75045704244586   -2.07005334513962
H          -0.56756511866041   -0.71222698784993   -1.85035695213391
O           2.59015314354888    0.53164664489927   -0.70639471594589
H           1.71533039543839    1.38007506630483    0.11542159945989
H           2.21752293668655   -0.35063912532137   -0.49201427732258
H           2.33090682740980    0.70165946814925   -1.64601914265321
N           0.91737591539972    1.78758403557063    0.76685321692450
H           0.68140059003398    0.95278644257636    1.39590335445258
H           0.08917332430792    1.96046028214303    0.19881675215041
H           1.19841043351094    2.61022313601682    1.29028984969217
