    26
        -50.46515666  Gyration_radius:  2.51614746193 Dipole_moment: 4.763
 S           1.01979027911598   -0.67223333310225   -0.30957584528056
O          -0.27383345453367   -0.15450475519728   -0.78536162211896
O           1.65719394020964   -1.48285227291496   -1.46453541328960
O           1.90051105851751    0.46721549752263   -0.01930985764690
O           0.84186225081082   -1.55534028298701    0.81873507449911
O          -2.79103991170258   -0.91288414934956    2.13092450398085
H          -3.23779088917431   -1.54372705829810    2.69733612349327
O           0.05615696617775    1.58940664403159   -2.71179001563273
H          -0.12981013123702    0.93994510856107   -1.99459240872864
H          -0.49227432626711    1.32933724001531   -3.45397718953679
O          -1.71128461110707   -2.22516227207366    0.08951475030403
H          -0.89853949515224   -2.56210416557099    0.48875416707395
H          -2.51054895121602   -1.41611256579109    1.32586563598076
H          -1.39349621656019   -1.45949406318104   -0.42130457280232
O          -0.34196051256582   -0.08619927797331    2.71493617627349
H           0.17217681300543   -0.72448578510726    2.17497818105450
H          -0.18894901839986    1.12047947858635    1.88979755763562
H          -1.28626466728678   -0.36504581139599    2.61754041696675
O           2.57913250821874    0.61895612955365   -2.64671048534825
H           2.80142398715714    0.90220630960749   -1.74938159654419
H           2.07094837135513   -0.80172543212841   -2.07027580942359
H           1.74977227594086    1.09485390241030   -2.86129829187212
N           0.03210455022398    1.85380779383568    1.08943038113737
H           0.91186061950413    1.44430650131040    0.63487400669824
H           0.16651695189826    2.80051249795713    1.42909746765105
H          -0.70365837694327    1.80084413170944    0.38632865546655
