    26
        -50.45059450  Gyration_radius:  2.46319303739 Dipole_moment: 4.137
 S           1.50720475156320    0.59176280356038    1.17532194062678
O           0.20435536664687    1.19704807807251    0.97528944260242
O           1.29436162019227   -0.93117309041037    1.39796817149223
O           2.27108769496023    0.64647564291954   -0.15824742695403
O           2.27667305301312    1.11927774793783    2.23871365593025
O          -1.12203534241365   -0.51594152433409   -1.88787825601385
H          -1.81349787904711   -0.73915026824684   -2.51157276038779
O          -0.13265081472174    3.40263479575399   -0.50403908139828
H          -0.14791511685370    2.69780369118591    0.17121789721138
H           0.42150077754847    4.10251658509269   -0.15534155574026
O          -2.09834370231306   -0.12992894728886    0.44862022929173
H          -1.57778535614876   -0.35038531449077   -0.99788752731802
H          -1.96372501735872   -0.95739542519087    0.96685236175064
H          -1.40410027537281    0.47533201605204    0.76032157632564
O           0.78357818336475    1.40880995412105   -2.02217467201563
H           1.66485738352089    0.97664478795771   -0.94407053198014
H           0.03366206233498    0.78132835343495   -2.06328371459361
H           0.41387173974549    2.24562181010807   -1.66351964205443
O           1.02842563585794   -1.82222175330463   -0.99509559236056
H           1.17115744194756   -1.34030660525787    0.48678100035486
H           0.20727489498820   -1.44289541081240   -1.38045336265220
H           1.76345221457362   -1.41354482212712   -1.46076772421146
N          -1.33797422721008   -2.31879897218493    1.88524650561581
H          -0.40075501380388   -1.98131462620596    2.08098729943136
H          -1.24855238809785   -3.19593897018471    1.38795106725894
H          -1.79412768691613   -2.50626054615729    2.76906070978868
