    26
        -50.45059451  Gyration_radius:  2.46318665007 Dipole_moment: 4.137
 S           1.14045106768916   -0.09076616642558    1.64148021582310
O          -0.07439851290048    0.66587881546923    1.40603895553235
O           0.89985219505326   -1.54272206762110    1.14334033225920
O           2.22409739596761    0.43210171603139    0.68375787864768
O           1.59873569444013   -0.12269595848999    2.97943077262913
O          -0.58432014914636    0.41461253055941   -2.13912468279204
H          -1.08626133336867    0.53476807730689   -2.94569439440817
O          -0.04792265114514    3.30537666360797    0.95999769200297
H           0.38587606993635    3.74364285020713    1.69365284732469
H          -0.22779419119037    2.39068690318584    1.24979088661903
O          -2.14063264310683   -0.09938490236853   -0.17060194188937
H          -1.25837579821624    0.24373059638330   -1.40179626079803
H          -2.13308133614220   -1.07535723302614   -0.03345294542340
H          -1.56055873770441    0.25471688590418    0.52480934307991
O           1.26155061991452    2.03141604414695   -0.98470058970586
H           1.83833439936436    1.11230480036666   -0.01090279759009
H           0.55765330123256    1.55154075256544   -1.46641388717399
H           0.79875486662459    2.67888603211108   -0.40835537710051
O           1.27906096920510   -1.34371021511652   -1.38807421478652
H           1.02409874898406   -1.52817808968702    0.14475053580046
H           0.58087869253581   -0.76243459639292   -1.76401956939327
H           2.10373058429255   -0.85299756779504   -1.44510840923132
N          -1.74747304786357   -2.74703960205448    0.34756854894027
H          -2.41507512673885   -3.23559398511781    0.93063469897967
H          -0.89870805253897   -2.61165391801628    0.88780720505790
H          -1.51847300517908   -3.34712835573421   -0.43481485240788
