    26
        -50.45269172  Gyration_radius:  2.57772656144 Dipole_moment: 4.547
 S          -0.78814603241909    0.15203196932235   -0.51600971948563
O          -1.64492023472342   -0.34302257059857    0.64768719742418
O          -1.02381351533922   -0.65693181151401   -1.67721268524094
O          -0.99443459480522    1.56756124424065   -0.69702105718928
O           0.64201290439182   -0.08889605678080   -0.00861581330924
O           0.33494601653488    1.65207920755047   -3.01968414580131
H          -0.21182857834178    1.09204991289895   -3.57629901087533
H          -0.19044496959353    1.82473385685697   -2.21757861693685
O           0.85072838676565   -1.98765995348314   -3.05015085088078
H           0.84771099243411   -2.90949365360585   -2.78838587035789
H           0.05999333452950   -1.58088702496729   -2.64475127410198
O           0.84937465821972    0.91494799854764    2.62529346516768
H           1.11318582384533    0.65376538020626    1.73368283555241
H           0.54283846917338    0.08139842703399    3.04735228330717
O          -1.52387026662288    1.75979462405496    1.96200877570056
H          -1.39360485325236    2.28626540522432    1.16114582945928
H          -1.70414093106812    0.49637806947833    1.28569870387320
H          -0.61480003339278    1.60689523033111    2.35285831261552
O           2.15050403003467    0.05691041521285   -1.95489900948985
H           1.36554368689307   -0.02624936644988   -0.82025885784099
H           1.91717385786196   -0.76686028332555   -2.44053940544670
H           1.68539291077413    0.77747699908522   -2.44712130645416
N          -0.39151613305970   -1.43313433400169    3.26820816268350
H          -1.06991969365913   -1.36386325520787    4.01632548752431
H           0.09343275792926   -2.31593061706568    3.36747279704615
H          -0.90139798310304   -1.44935982303737    2.39079377305239
