    26
        -50.45059456  Gyration_radius:  2.46317633482 Dipole_moment: 4.138
 S           1.83501027668731    0.55024611158588    0.57760637174496
O           2.23199578694025   -0.04103388190222   -0.78537684451343
O           1.42840944227541   -0.70305601922573    1.40107536401943
O           2.92835314978894    1.19122100648238    1.20602311698487
O           0.64766809424432    1.36188612041771    0.38984960518931
O          -1.63649701001359   -0.81780077598691   -1.31975024684934
H          -2.49150177820364   -1.05475013473264   -1.67996860527369
O           0.32801135066914    2.95219272511071   -1.73976589713523
H           0.36467340253355    2.54303777800592   -0.85418889540869
H           1.06398076601249    3.56416835036586   -1.78820527069771
O          -1.90532355197568    0.56353099879729    0.82058341107571
H          -1.06156545016392    1.04171511647944    0.75069574611155
H          -1.81558895404418   -0.25364012095161   -0.49703896554691
H          -1.78704945689692   -0.04761680029219    1.58472004842525
O           0.47261494056981    0.40182288660975   -2.51059851217622
H           1.51164805687287    0.14837481017919   -1.51974857790103
H          -0.35903933465589    0.00825038911073   -2.17705504893466
H           0.35521285274705    1.37502232038005   -2.44221855408595
O           0.41362245122586   -2.24751993028137   -0.38116357174690
H           1.00915368889078   -1.34894912860120    0.75310373976600
H          -0.40095613396118   -1.82487008922116   -0.73402023513912
H           1.06482923426008   -2.21905241948326   -1.08773893268829
N          -1.19103759612903   -1.13353409733588    2.83127941780966
H          -1.38220980003100   -2.11894923602602    2.70051663688882
H          -1.43303456216966   -0.89246638824300    3.78400001489881
H          -0.19137990547355   -0.99822961124245    2.71738468517845
