    26
        -50.45300986  Gyration_radius:  2.4348541203 Dipole_moment: 5.195
 S          -1.15763048928498    0.57534598980234    1.64849754961619
O          -1.20544942397855    1.61424276885607    0.63052687813509
O          -1.66814072264527    0.93193741463679    2.91833478857247
O          -1.89826723718902   -0.65455854314731    1.09922406908259
O           0.31348304630730    0.11837375822742    1.77506958240047
O          -0.12184410393643   -0.40515461550373   -2.28525776570198
H          -0.00365124769136   -0.30925425643792   -3.23095001407770
O           0.79861544485229    3.13021424692671   -0.28650122519449
H          -0.04542613734041    2.73390549680918    0.00536447167218
H           1.04337803333667    3.76798859574489    0.38553757909482
O           1.56280451052574    0.57592463663957   -0.38856378546799
H           1.47902870942659    1.55281874349498   -0.44074946864485
H           0.82026745626513    0.28839124743452    0.89991635906262
H           1.02244146742133    0.23085648993834   -1.12745416278816
O          -2.41364238276617    0.57132916973240   -1.47212711753812
H          -1.00610428017863   -0.00274761542048   -2.06800029220759
H          -2.95091771556193   -0.10991557224313   -1.05923132457832
H          -2.05424427303279    1.10048520740434   -0.72920878640489
O          -0.40852345510442   -2.18090761539860   -0.21400438925508
H          -0.25916372524993   -1.72862353619079   -1.06081512227473
H           0.48323822180453   -2.24312158136792    0.22789917971171
H          -1.27869867483050   -1.30994820028798    0.57626560425843
N           2.01207009204026   -2.13663468770438    0.92182770323407
H           1.80925298125232   -1.78318177218929    1.84914811522736
H           2.49131895088119   -1.39917375124406    0.41812684617939
H           2.63580494467566   -2.92859200850994    1.00712472788561
