    26
        -50.44829507  Gyration_radius:  2.45637658052 Dipole_moment: 7.710
 S           0.55338489836224    1.64932082842071    1.15077527629138
O          -0.77689326633227    1.36779800693891    0.54081914321285
O           0.58492107121105    2.86575306440288    1.87835595480735
O           0.75640936430016    0.43282743917754    2.15318835998772
O           1.58738734467700    1.48743528856828    0.13148350330597
O          -0.91096877946924   -1.32688852580366   -1.72338578819262
H          -1.39383212563995   -1.78518916444481   -2.41196938026515
O           1.48177374810137    2.17877738937355   -2.42737035217836
H           1.63427947001955    1.94914799947208   -1.48616594428006
H           1.62824255986273    3.12344835135335   -2.49432857720054
O          -0.99162643004895    1.18883238740818   -2.12911152280104
H          -0.13206420180919    1.53957319069464   -2.44528086977963
H          -0.92008325987406   -0.33853582059577   -1.98150361818021
H          -1.02863348156275    1.44414200015528   -1.18633442967881
O           1.29450346140890   -1.10916264910166    0.02174051292366
H           1.62340223979445   -0.20735220659701   -0.17162789409514
H           1.02558335612731   -0.25657396970153    1.52302245638843
H           0.68936849274371   -1.31965823518851   -0.70406102413521
O          -1.80338241168610   -0.85812883391602    0.64099578835456
H          -1.24461156660649   -1.45331221170249    1.31169399099988
H          -1.40128485059130    0.14388635867105    0.68393919275445
H          -1.55135436217212   -1.14874581896132   -0.29728362262450
N          -0.36128211750063   -2.28013365946667    2.20783933327218
H          -0.08214811928895   -1.66158600258647    2.96105044950508
H           0.46321280702956   -2.48661135179858    1.65310657524962
H          -0.72430385105349   -3.13906385477079    2.60041246635274
