    26
        -50.45300972  Gyration_radius:  2.43481479732 Dipole_moment: 5.196
 S           0.14633831830416    0.63910880526246    1.98933208624028
O          -0.55875213361214    1.64126543299094    1.20422637020112
O          -0.75023530940736   -0.60665278267035    2.07436133972793
O           1.37030806118497    0.18116278812440    1.16413416950569
O           0.55322321167286    1.04258103147167    3.28238569144163
O          -1.54121867165238   -0.48606013601589   -1.67035516169507
H          -2.05355233563298   -0.42332945439004   -2.47727668187549
O           0.37060356182320    3.11422367436137   -0.82623309536374
H           0.97384956929001    3.77584258462751   -0.48472832666169
H          -0.08575412914895    2.73262162063096   -0.05114615894932
O          -2.80868263968430    0.52967779957476    0.38589309205767
H          -2.09224223554567   -0.07226060591219   -0.95181048435210
H          -2.94684385518498   -0.13401490137324    1.06682496700086
H          -2.06868993992226    1.08328378710242    0.71314375222751
O           0.94553575473889    0.55433489802177   -1.31177304366767
H           0.06516972752122    0.18519640866797   -1.52604529589156
H           0.82844868956710    1.52904745439327   -1.32893285669241
H           1.19975409706125    0.31693729903214    0.16195029156699
O          -0.40850234416507   -2.18620281588534    0.16066549869318
H          -0.84130910807425   -1.76547070652027   -0.60061308948730
H           0.56166464667697   -2.23599618740256   -0.06453555930880
H          -0.59304144180919   -1.28308339125502    1.29676799525069
N           2.18043928709363   -2.11111778747777   -0.50433200443109
H           2.73138097511463   -2.90310325686394   -0.80897087238633
H           2.60579055272440   -1.72215646232983    0.32857397589458
H           2.21631769105577   -1.39583508616701   -1.22150662904517
