    26
        -50.44829513  Gyration_radius:  2.45631185709 Dipole_moment: 7.709
 S           1.54968950340718    0.25077059697905    1.37351627942739
O           0.52395265486067   -0.67441427820360    2.15949063148388
O           2.79449552840299    0.25112661672822    2.05212715064815
O           1.61809304656178   -0.38572627394793    0.02775634737486
O           0.88725751781974    1.54729077458883    1.25275776202200
O          -1.23106524473797   -0.02334099813046   -2.01101116898066
H          -1.61732778628215   -0.08892615236971   -2.88498015262645
O           1.12296417556989    3.32925411633706   -0.69781674093178
H           1.02216880441536    2.76098874245616    0.09510874948571
H           1.94116422597940    3.81210011838760   -0.57256574142097
O          -1.44971939564550    0.48332779919499    0.75513123246212
H          -0.75230923947725    1.15547816342516    0.89870421393242
H          -1.57203700524109    0.44541107607673   -0.20449228046691
H          -0.31244400550788   -0.33956558741020    1.79448018448483
O           1.06361813561617    1.07855200409485   -2.15287387904648
H           1.05410286030080    1.99655962216464   -1.80783771852951
H           1.47483216047411    0.55262130221197   -1.43895500430978
H          -0.35382758477220    0.48700200509376   -2.12718197152761
O          -0.09827121333603   -1.95607328682878   -0.75109752092795
H           0.70906035033402   -1.34598918621809   -0.37225721660051
H          -0.71894100909567   -2.20466669558019    0.06693476583167
H          -0.61168241546125   -1.29708475452700   -1.32608440665228
N          -1.62202836987282   -2.45376535149197    1.24581509971205
H          -2.23367082423512   -3.25963547202593    1.23591839336063
H          -2.17927207374439   -1.61051788132695    1.33823836052256
H          -1.00880278633950   -2.51077701967772    2.05117464126904
