    26
        -50.44829515  Gyration_radius:  2.45633865865 Dipole_moment: 7.709
 S           1.57527587972623    0.87157740996698    1.05409619212320
O           2.82171840801057    1.41270113483747    1.45868665932085
O           0.40804076560855    1.72277135237809    1.27192632671863
O           1.57434002371360    0.40016334226701   -0.35961638229202
O           1.28744389995258   -0.45633113859675    1.87848926785472
O          -1.55752273784897   -0.49432015538657   -1.69979137096382
H          -2.08213484296059   -0.68989461872204   -2.47687047238882
O          -0.65260206691120    3.50043131399207   -0.38660574317512
H          -0.12465524088479    4.29955500506033   -0.35559853333579
H          -0.29359901941440    2.91388213656722    0.31264708447904
O          -1.27476950389419   -0.27182891861321    1.09812763261171
H          -0.92774793003723    0.63814128746195    1.19997307474416
H          -1.60419748763695   -0.31765552259199    0.18893260016878
H           0.32699256373788   -0.52715502140913    1.74635828447511
O          -0.08809900972971    1.54418019884489   -2.13035452059092
H          -1.05008086515277    0.36682660111617   -1.91048764376516
H          -0.40953279658964    2.33809105899886   -1.65258903198335
H           0.67518044002125    1.23402789073239   -1.60449414815774
O           0.57864332228955   -1.74570993183029   -1.00910748501193
H           0.35441867519731   -2.28894278437573   -0.13120835289899
H          -0.29596823879293   -1.37080017750100   -1.35966232801710
H           1.10609663425629   -0.85081133604744   -0.71135803284558
N          -0.02416735543754   -2.97886280022763    1.15267784178843
H          -0.84959599205558   -2.49053135239187    1.48487803606333
H           0.73247502268862   -2.78541648789433    1.79915242252048
H          -0.20595252785297   -3.97408849663289    1.14179863256236
