    26
        -50.44829498  Gyration_radius:  2.45635217814 Dipole_moment: 7.716
 S          -0.52132964673383    1.24420907525002    1.59029098423176
O          -1.01998066029326    1.30038600306373    0.18729472007418
O           0.93812425583086    1.17828718611262    1.57326297790491
O          -1.08777951585083    2.24273832515156    2.42226573183208
O          -1.00124214617139   -0.18700622539317    2.08797404177114
O           0.64839006916032   -0.75171726530728   -2.13896127813050
H           0.81876999406274   -0.96566892717162   -3.05688732612128
O           2.61267049915491    2.45298498768170   -0.04122309620762
H           2.07575989149544    1.99185652525785    0.63765610116457
H           2.70061251890495    3.35728816253095    0.26327375004570
O           0.71269000708435    1.77501257425035   -1.80707637821833
H           1.52159061516258    2.06619341904938   -1.33519832716653
H           0.75919731807983    0.26066066467265   -2.05917129993586
H           0.00863004378235    1.80791963411333   -1.12981892874563
O           0.97576497326424   -1.25560431062142    0.61716425916095
H           1.28567585854045   -0.38838231211749    0.95008589305573
H          -0.32343041388089   -0.74282618741413    1.66806586413063
H           1.06917683678065   -1.20592289649866   -0.34516034130594
O          -1.67396877423765   -0.72175945278783   -1.03893634947955
H          -0.81755281041298   -0.81991038388400   -1.57352798498054
H          -1.70928280704688   -1.52830776558767   -0.35691495735351
H          -1.48450474011386    0.17580789393187   -0.46969174697303
N          -1.65717065821163   -2.65403000106988    0.64071504559808
H          -0.66933819270233   -2.83996707263991    0.78136454845495
H          -2.13423693423914   -3.52088429810800    0.42963543086445
H          -2.02723560139793   -2.27135734246420    1.50351867632794
