    26
        -50.45269168  Gyration_radius:  2.57784280622 Dipole_moment: 4.550
 S           0.59802598080910   -0.73693660480766   -0.10021454202388
O           1.77147776427325    0.16600662276149    0.27524200234429
O          -0.61392029841700    0.18864104794021    0.08907994799344
O           0.70020907113863   -1.10528206768863   -1.49051937795944
O           0.50837835913551   -1.83291822553501    0.82119690590582
O          -1.25133858990876   -2.93262087866975   -1.33959392559244
H          -0.87383564518443   -3.56833613996224   -0.72655532340694
H          -0.52029361187359   -2.34049348766965   -1.59281393189985
O          -1.64396571050504   -2.46034307581348    2.28551162784553
H          -1.53676549535167   -2.12328453428610    3.17618975674933
H          -0.78202631753883   -2.34607068911106    1.83934507255459
O          -0.07261758745835    2.65861299966222   -1.17418948060206
H           0.36850263864264    3.04990114161358   -0.38726525865222
H          -0.57773315579572    1.91327084765570   -0.82479312623036
O           1.97717872699867    1.24994604525351   -1.94880490510765
H           1.22691376334312    1.90324956323825   -1.83556957968235
H           1.98957080949195    0.67495172861866   -0.62404089696782
H           1.60316196198970    0.47604902215365   -2.39229452416904
O          -2.62869871031476   -1.23397003664849    0.14146684665258
H          -1.54397146088302   -0.37686218353339    0.10920357191886
H          -2.34959229710432   -1.90782218951688   -0.52617848826063
H          -2.52243816149769   -1.68516939233685    1.00977952751319
N           1.37123219740059    3.13119540889680    1.09694943236419
H           2.23614834485778    3.63689194753244    0.95207622379725
H           1.60295821014754    2.14856392357247    1.20114946778234
H           0.96343922361764    3.45282919664556    1.96564297713627
