    26
        -50.44829500  Gyration_radius:  2.45641713047 Dipole_moment: 7.716
 S           0.70191126189565    1.62611367401636    1.10018127969792
O           0.82674380837073    2.78650576419813    1.90518752850625
O          -0.71412452105726    1.21946600652945    0.87671619212211
O           1.39424423023381    1.66282186693634   -0.18589680362499
O           1.31773679752165    0.38208304696534    1.87422478494973
O          -1.24391657382660   -1.31518645636895   -1.51071374634457
H          -1.86071057645398   -1.78432240116515   -2.07354943473081
O           0.45893935934343    2.50747621469009   -2.52010632975070
H           0.90828133520544    2.23554399264145   -1.69190295449827
H           0.48262556379602    3.46538610963675   -2.52935099515275
O          -1.69699837292767    1.19133069300174   -1.62113668228474
H          -1.47618303700722    1.37710387521010   -0.68726032125864
H          -1.01238528161888    1.66927899058130   -2.13550628239820
H          -1.42971722030907   -0.32108297845838   -1.65451534242349
O           1.34773472134856   -0.93707343485777   -0.46456108995615
H           0.57816507576104   -1.17443138731500   -1.00186119362733
H           1.51028051557485    0.00986464715144   -0.65363650727913
H           1.45433313025894   -0.22501533173222    1.12752031063179
O          -1.43323158322577   -1.12014362815914    1.04511300541275
H          -0.64249004007873   -1.68286768499844    1.46300147011966
H          -1.14041429395501   -0.08078829233350    1.07053624899012
H          -1.44440050808278   -1.31401362560164    0.04969869628454
N           0.54718820293054   -2.44773824432077    1.97861870316511
H           1.18447369628780   -2.51179912264700    1.19123650047221
H           0.40715738230985   -3.36939846441376    2.37171011882793
H           0.97475689770387   -1.84911385919277    2.67625285415763
