    26
        -50.45300967  Gyration_radius:  2.4347910523 Dipole_moment: 5.196
 S           0.04109894422240    1.95744830427333    0.74447488873283
O           0.60526286212342    1.93258390778460   -0.59679406904788
O          -1.45963038819638    1.64549325550543    0.62829823979825
O           0.62925031883396    0.75476039882131    1.51673264793423
O           0.24110126494860    3.15144219185810    1.47570677871522
O          -0.82693438325072   -1.28941919134280   -1.74788145750250
H          -0.86102040428857   -1.82449574957460   -2.54162386178794
O           2.81969031491882    0.69375483131885   -1.44370180809507
H           2.05299856590486    1.27623408469089   -1.27766077645455
H           3.58796228486248    1.15750629246342   -1.10762122764032
O          -1.95457445098695   -0.80865178640409    0.70659547759305
H          -1.68249108934983   -1.15358541117492   -0.15990628020116
H          -1.36377402771156   -1.24909549866678    1.37846131344535
H          -1.67651290408679    0.62756243815174    0.68949366205958
O           1.32920261687848   -1.06914967913294   -0.10585704738059
H           0.58834348186784   -1.22172530483397   -0.72645818445723
H           2.01045764376017   -0.59284205494934   -0.62845788954929
H           0.90167329737233    0.00878655455508    0.86764282169313
O          -1.34315478107570    1.23304078315308   -2.23445020962282
H          -1.02558786823477   -0.35472326098047   -2.02733668360077
H          -2.11438088011828    1.52719961214310   -1.74258588723245
H          -0.57412384218027    1.60180815520863   -1.75096472651598
N          -0.20187266854777   -1.93921653584055    2.38000455079983
H           0.12223298769089   -1.14615112493905    2.92033754378388
H           0.55805277886471   -2.21702070267868    1.76959632913908
H          -0.40326967421844   -2.70154449940625    3.01395584539608
