    26
        -50.44829508  Gyration_radius:  2.45639066629 Dipole_moment: 7.708
 S           1.32417184075037    0.89584286631031    1.33977958303012
O           2.46924206312150    1.40181609512503    2.00527747125345
O           0.23117047914105    1.84400510688782    1.13805868834886
O           1.64527759182522    0.24247408438779    0.03945525616492
O           0.70073583384370   -0.28929422926799    2.19583392052764
O          -1.10209775910896   -0.60861606493206   -1.99379027071359
H          -1.42229461370550   -0.86915874892808   -2.85804307224460
O          -0.17392660179681    3.45551290775097   -0.92973765481040
H           0.40653949713392    4.21320054442534   -0.84432775396424
H          -0.07160526107897    2.94351858097348   -0.09955347420315
O          -1.53810658223774   -0.03928351493194    0.73425518129974
H          -0.19410295415664   -0.31269540623892    1.81701856018747
H          -1.14058475596275    0.85089211858652    0.82601046028053
H          -1.62227561666521   -0.18250982160676   -0.21949813543245
O           0.62533963623601    1.25157841403353   -2.22963549026876
H          -0.47372487937236    0.18119336106224   -2.15146946651232
H           0.27204530116061    2.12176919149613   -1.94702525663542
H           1.18991111299637    0.96295733566065   -1.48579725622874
O           0.64384935988575   -1.89860716148635   -0.61740923903874
H           0.14527225113670   -2.30502206540325    0.22074888418885
H          -0.06696278843867   -1.51531742708336   -1.23069677968487
H           1.16206432906073   -1.00975529221549   -0.28733547782376
N          -0.62147920365362   -2.79231065315956    1.42145828407078
H          -0.89310952744923   -3.76568358600275    1.47058434008623
H          -1.45156734448637   -2.20967000875551    1.46234237074116
H          -0.04378142816815   -2.56683660669765    2.22349633737967
