    26
        -50.44829509  Gyration_radius:  2.45634722728 Dipole_moment: 7.707
 S           1.50975999974210    0.46250839241032    1.36283449371583
O           0.72054720498658    1.67930587536366    1.18681301610759
O           1.64890947051219   -0.21970238837195    0.04520802061771
O           2.74463005725611    0.61687739404300    2.04199328941341
O           0.57845100060865   -0.52770971322180    2.18625797741080
O          -1.21282857922740   -0.23057980116446   -2.00895512770933
H          -1.58616248424663   -0.37102314333462   -2.87973270607836
O           0.78669954636932    3.39375863008140   -0.83621760671085
H           0.73928870229535    2.85169281819727   -0.02026496352175
H           1.55150259194151    3.96140281072895   -0.73043175215067
O          -1.49517878583940    0.36569488097589    0.73356698980380
H          -0.28569391013837   -0.29431894252355    1.80724320487318
H          -0.86929766283054    1.10983612947049    0.84906129160416
H          -1.60868873878139    0.27575372608153   -0.22367195371459
O           0.96039454790612    1.08941993036977   -2.19512911656060
H          -0.39074436817767    0.36014871716602   -2.14570324990801
H           0.85729075262136    2.01546488480008   -1.88913889109129
H           1.41889839149834    0.63772698955426   -1.45952585261371
O           0.10264528752330   -1.98539694113872   -0.66867904033421
H           0.84266915250355   -1.28194246133008   -0.31498171172054
H          -0.49399754095923   -2.26127591153908    0.15837810922813
H          -0.47148315731416   -1.40582424774685   -1.27108605980867
N          -1.37312719311106   -2.55086338257961    1.34611885327591
H          -2.01276796467437   -1.76481657826922    1.40284361967655
H          -0.76107105413304   -2.51220206904416    2.15346875939451
H          -1.90064529632627   -3.41393560897781    1.36973040680513
