    26
        -50.44829510  Gyration_radius:  2.45634694862 Dipole_moment: 7.710
 S           1.70594167891542    0.61978641554997    1.02773070473052
O           1.87493917447622    1.05129638258088   -0.35780759984751
O           1.86410952988989   -0.96137624299495    0.99820355170116
O           2.62172812487345    1.16416978705525    1.96314999934951
O           0.28233490269554    0.81110931485016    1.42455481774489
O          -2.13297178202658   -0.00606237195334   -1.00518818871370
H          -3.04291248725250    0.05466144662468   -1.29782965186403
O           0.75836177849847    3.12961316830903   -1.56998335024110
H           1.26370991478911    2.38009739502595   -1.18962432109610
H           1.23188107780607    3.92237730691053   -1.31391797769143
O           0.50383610045786   -0.95868963614502   -1.31671970306133
H          -0.41170743515555   -0.67213559883066   -1.44652741043064
H           1.02827038591084   -0.13269746961030   -1.27751009662681
H           1.44485119510824   -1.15296846123669    0.14242612712117
O          -1.34102338750012    2.26045582692316   -0.14758651163547
H          -1.85624820157383    0.94195465270845   -0.74390857332959
H          -0.77046881854471    1.90801912699431    0.56346042474060
H          -0.71912661814184    2.69408514455720   -0.76972122198646
O          -1.36822489238905   -0.99464067795537    1.24061866530083
H          -0.85620581691806   -1.89449830776477    1.03005442919153
H          -0.62410464621936   -0.23164202965896    1.41762448654927
H          -1.79174032283698   -0.68201620023198    0.37371099049450
N          -0.08345272283826   -3.12763170254768    0.64365498666314
H           0.15231755354094   -2.99872916691538   -0.33510523207678
H          -0.51114882524796   -4.03603256293444    0.76800001944008
H           0.77705453968322   -3.08850553930766    1.17824061557871
