    26
        -50.44829495  Gyration_radius:  2.45645908486 Dipole_moment: 7.714
 S           1.55182208942017    1.30083025838508   -0.49870538526782
O           1.06093930523845    0.94661467371239    0.86289754817286
O           2.05777903132363   -0.09149872392810   -1.07469573859971
O           0.41143562195613    1.67300551862184   -1.33277219817142
O           2.63202601081739    2.21889428530519   -0.47891206429506
O          -1.93422224633707   -0.90249567562200    1.00334277537924
H          -2.66756481611919   -1.22038926807778    1.53103527151965
O          -1.73263399141395    3.07190708083463   -0.63803654288680
H          -1.49781991582183    4.00075699284076   -0.62008087726439
H          -0.95054592238646    2.60388053423480   -1.00009339787517
O          -1.46500448309241    1.54348079228065    1.54815480699749
H          -1.84497486012337    0.09307389543985    1.21404369763875
H          -0.49461635871510    1.48781669981363    1.44496720155439
H          -1.75458392558777    2.14502521799492    0.82978589542065
O          -0.51619218071753   -0.77015594998735   -1.43182167413053
H          -1.18673642443201   -0.87245950529523   -0.74108224825346
H          -0.43894215333914    0.19571989163332   -1.57336123745418
H           1.20535884704547   -0.48645328021926   -1.32373205097743
O           0.54517892676621   -1.36753757668189    1.49428258012689
H           0.90182089148596   -2.00831413276189    0.73352070084719
H           0.86714683690818   -0.36563793587870    1.25177691851593
H          -0.46069198542729   -1.30109894601642    1.38207440996016
N           1.35079802021755   -2.86386977657075   -0.42074664314143
H           2.22371527239645   -2.45738441126555   -0.73773470760995
H           0.65732828627836   -2.71667054199550   -1.14713541836469
H           1.47918013365651   -3.85704011679718   -0.27697162183911
