    26
        -50.44829512  Gyration_radius:  2.45632460534 Dipole_moment: 7.710
 S           1.29543468566107    0.91828550364890    1.35254434780480
O           0.17044733429256    1.83193430493740    1.16820186389458
O           0.71419791456852   -0.30174229342834    2.18890372251224
O           1.63643551375644    0.29846793669247    0.04090787619379
O           2.42371233501591    1.45161127210315    2.02530380144143
O          -1.08440653280947   -0.61324968851409   -2.00184916533575
H          -1.39745296884605   -0.87064960482415   -2.86964647429493
O          -0.29558975745864    3.46216134862539   -0.87171494230410
H          -0.17340770383489    2.94028115740254   -0.05042891680591
H           0.25783535663832    4.23837821310535   -0.77437849598566
O          -1.53458454376497   -0.10368611181215    0.73580617890579
H          -1.16785007493574    0.79803029587887    0.84184674428866
H          -1.61510800602431   -0.23406282747366   -0.22012010823868
H          -0.18013928285656   -0.34912985965729    1.81094993908319
O           0.57727385429895    1.30917218054876   -2.20944148592302
H           1.15302734208400    1.02802200233515   -1.47131818432875
H          -0.48393334942184    0.20016074467182   -2.14763207928722
H           0.19450714142873    2.16167095396879   -1.91184073720932
O           0.70789407139796   -1.86459354296227   -0.64987541156992
H           0.22557458242158   -2.30171354386568    0.18227038653368
H          -0.01714500552135   -1.49605825603737   -1.25564238476515
H           1.19599313921166   -0.96398657038655   -0.30589520552533
N          -0.52160817941453   -2.83523289805037    1.37579682475714
H          -0.75848925148463   -3.81829259190123    1.40910613006368
H          -1.37173244643111   -2.28316143038821    1.42733681433585
H           0.04911385202506   -2.60261671462287    2.18080897175951
