    26
        -50.44829508  Gyration_radius:  2.45639206943 Dipole_moment: 7.710
 S          -0.34070324356286    1.41614864906933    1.49291151081935
O          -0.91623621472905    2.33621556055842    2.40520220499933
O           0.26849840365526    0.18957606113845    2.29941363710448
O          -1.34568195725328    0.77066274830868    0.60180683847350
O           0.75867714961149    1.92719691676870    0.67753214192449
O          -0.06117635348742   -1.14323155182238   -2.06185296523259
H          -0.22366362571467   -1.58425286909811   -2.89638447897679
O           0.62473406582766    3.08996340314583   -1.70286558690526
H           0.76484704663668    2.73019399632007   -0.80128661588318
H           0.35157837586814    4.00059919893138   -1.58282080387927
O          -1.18642028241178    1.14447469079471   -2.05177392742916
H          -0.53823166369785    1.87568716297267   -2.13504628715086
H          -0.47293009015684   -0.21241118636514   -2.14907679136503
H          -1.42703446543841    1.13685039971737   -1.10444599583814
O           1.63860262483045   -0.46316292631368    0.08433750110735
H           1.55955563150144    0.51250108896743    0.10989654007456
H           0.87371133132408   -0.16543574511447    1.62676950458495
H           1.26363377863827   -0.72599569327371   -0.76862826158607
O          -1.30501549648105   -1.63702719947895    0.13231275416294
H          -1.38590101302029   -0.59817497246888    0.41733230241593
H          -0.85710788125067   -1.57458886466968   -0.77548066156715
H          -0.61469273797633   -2.09340455213182    0.78926235617318
N           0.44356791182817   -2.67505533877357    1.68838246250414
H           0.34698180450257   -2.18843234136457    2.57252293629199
H           1.32761013520953   -2.39630235454007    1.27490947036683
H           0.45279677574545   -3.67259430128086    1.85707023480903
