    26
        -50.44829503  Gyration_radius:  2.45642349139 Dipole_moment: 7.709
 S          -0.16009877877813    1.77558255763594    1.08237261854696
O           0.23255462984718    0.71427584369072    2.19834980203671
O          -1.51420672885395    1.41733120630505    0.66698988159502
O           0.00317859646154    3.08417672505515    1.60300138715556
O           0.78505424169441    1.46630067259825   -0.02751210153318
O           0.19011453190625   -1.52670865568641   -1.78718812433524
H           0.36417007038423   -2.06009367536768   -2.56341023338209
O          -2.62603901931889    1.72595204763107   -1.72154015960724
H          -2.88722971985778    2.64264105849501   -1.82030796576840
H          -2.32087703201983    1.63175187202815   -0.79432347165142
O          -0.18608320263292    0.90187817956024   -2.46596786626177
H          -0.02167045092434   -0.58836954209574   -2.13072214291874
H          -1.12867254559418    1.16343286774228   -2.39612603468783
H           0.23669502764320    1.29601615382248   -1.67777144420123
O           1.98093219116737   -0.67200827512680   -0.15355243666289
H           1.37231271400728   -1.10982151404445   -0.83637210167818
H           1.53484799478613    0.30621874832446   -0.04613190693911
H           1.84424418004278   -1.18516615458145    0.75974758183945
O          -1.02420963130628   -1.15100763125047    0.73099732428172
H          -1.49888536585346   -0.30348890009765    0.60726325029778
H          -0.78444258253045   -1.44009820057229   -0.16130351647233
H          -0.21181107665445   -0.07276527933370    1.84077692461842
N           1.54268630738056   -1.90749715822460    2.04600741091500
H           1.56149110736255   -1.19649713932578    2.76846219870545
H           2.13093640175048   -2.68159330952402    2.32595236054850
H           0.58500816989071   -2.23044250765939    1.95230875555668
