    26
        -50.44829511  Gyration_radius:  2.45633808868 Dipole_moment: 7.708
 S           1.07148632175737    0.30542137400700    1.76351492888487
O           0.87175395416660   -1.27108703820744    1.73730079785046
O           1.50499237568598    0.70070698087258    3.05421315157966
O           1.98809590390347    0.59758696083392    0.66401793314528
O          -0.28182794701032    0.82459327801843    1.41729336603695
O          -1.30808511834251    0.38586337290899   -1.92377414746869
H          -1.91964273556135    0.62099822035158   -2.62237701008681
O           2.09653223578643    2.78083256607279   -0.83845115986840
H           2.17193807517232    1.96773341202804   -0.29527130832797
H           2.54474600858453    3.46901096832489   -0.34468477849185
O          -1.98035606171023   -0.59217699280367    0.35609279004499
H          -1.27181693848458    0.00313766507085    0.91386862781849
H          -1.84418436625648   -0.25435805214329   -0.59035247113925
H          -1.64284324979150   -1.59301470044799    0.38078816534057
O          -0.56252931869257    2.48086098409771   -0.67677060098141
H          -0.50697711395865    2.06210270450933    0.20466028455061
H           0.36219478853559    2.72799360338103   -0.89035441093175
H          -0.99449138660381    1.26744217522313   -1.51391689214007
O           0.85992383530480   -1.12957183025360   -0.94383869263764
H           1.46479321018176   -0.43510081606296   -0.61118055461743
H           0.89553567599929   -1.42402024331777    0.77766463482200
H           0.21403323288889   -0.66199116415434   -1.49289662070159
N          -1.07274385010429   -2.98654827456698    0.36480211124020
H          -0.60021985224914   -3.09747765988061    1.25489873841593
H          -0.36594386272567   -2.97767640886613   -0.36356126573883
H          -1.69436381647968   -3.77126110499934    0.21831435340403
