    26
        -50.45300977  Gyration_radius:  2.43484537416 Dipole_moment: 5.194
 S           1.93245469559641    0.22514712984256    0.77671980056877
O           1.43510417642793    1.51533936456247    0.32307929833544
O           0.78972623794060   -0.46341214207626    1.55693875217954
O           2.14152484117156   -0.65940294447517   -0.46302913329143
O           3.10799562988512    0.25848407356501    1.56241630194175
O          -1.25947422311047    0.31596666577423   -1.92779447813869
H          -1.90229943356229    0.67171443831249   -2.54241084128064
O          -0.64011448683031    2.91756924447717    1.26291158601114
H           0.19226124171134    2.58343022902153    0.87536571858284
H          -0.41097848610315    3.28382383570739    2.11826352138483
O          -1.45993608512197    0.42450050130946    0.78206751767729
H          -1.36827526911942    1.37390200980826    1.01520950231921
H          -1.47356791113134    0.39937422726926   -0.19586784049631
H          -0.12245103924212   -0.11845205495765    1.23928099160302
O           1.12501835212054    1.33938691881104   -2.29248545653443
H           1.29799224981517    1.56315599153414   -1.35379558461931
H           1.76319377394242    0.65473377554566   -2.50982733979933
H          -0.39403209720883    0.76336876517431   -2.13281288808709
O           0.08356626754496   -1.93241857940429   -1.10982464471408
H           1.29812805672833   -1.21514696422229   -0.72112839718881
H          -0.38328085379989   -2.25583143437653   -0.29016613912596
H          -0.50730944084620   -1.27687690372572   -1.51601669067036
N          -1.20792182588793   -2.59097248390715    1.13731835931638
H          -0.48150429509075   -2.50083261681256    1.83748365035286
H          -1.70497181344514   -3.45761127344130    1.29696088433435
H          -1.85084825238715   -1.81893977331835    1.27114353933885
