    26
        -50.44829513  Gyration_radius:  2.45628786911 Dipole_moment: 7.707
 S           0.73792569267339    1.65036606530981    1.04087337881944
O           1.06339784327840    1.86686329096494   -0.36681125133278
O           1.69299175620724    0.47286628877029    1.51745090265444
O           0.90997088962825    2.76785059573389    1.89626153632684
O          -0.62052760386074    1.04506816698062    1.13659580360312
O          -1.40532497305353   -1.40298020964615   -1.27059655020376
H          -2.07818092245114   -1.92911177318825   -1.70393789537216
O          -0.54548391000170    2.68040387009046   -2.31244765655836
H          -0.65432491742433    3.62983437606316   -2.24136725623555
H           0.13400155077285    2.43728786601887   -1.64837297653874
O          -2.20268453722854    1.00689392196960   -1.03205979243369
H          -1.74288983103013    1.61053733619415   -1.65342510400550
H          -1.75356572025912   -0.44270488824559   -1.27083059575049
H          -1.77528902673966    1.17183702826307   -0.16865516227232
O           1.29398386396255   -0.68959939540696   -0.86940216561593
H           0.45012580979002   -1.01115423286042   -1.21841512896865
H           1.27431977781118    0.28019379071678   -1.00321494644186
H           1.71190987465753   -0.06226396706812    0.70613457260005
O          -0.95077372344270   -1.38268860004757    1.25910093519153
H          -0.80323891833292   -0.31321743814091    1.30795173287542
H          -1.19353045200367   -1.51994347977537    0.28412184912518
H          -0.01091010500042   -1.83998268120100    1.41291936545913
N           1.36323099992041   -2.44214806893098    1.54273322276902
H           1.77770769075920   -2.36282215155647    0.61964843827650
H           1.45429451808882   -3.39530306844865    1.86961287906674
H           1.87286439327597   -1.82608264255839    2.16613185496057
