    26
        -50.44829506  Gyration_radius:  2.45637458608 Dipole_moment: 7.708
 S           1.46883670002773    0.65465537161907    1.32839096264302
O           0.53970808525565    1.76841305005702    1.15343694630975
O           0.67453937301567   -0.42607290410107    2.18108807214365
O           1.66354714535841   -0.02479316155909    0.01640498840997
O           2.68902624057457    0.96154108447098    1.98192866266227
O          -1.21270928717874   -0.39818851378302   -1.98283987487653
H          -1.58182166379387   -0.59355945015070   -2.84478257923574
O           0.36885245574392    3.45029048369871   -0.89073861387135
H           0.39968529671356    2.91777512774762   -0.06773898413662
H           1.06363909839671    4.10483462499134   -0.80618462737897
O          -1.51448687346660    0.19874244282747    0.75744796595311
H          -1.63367287054124    0.08292631407560   -0.19626767743586
H          -0.21742622539246   -0.30067945911144    1.81569707683995
H          -0.97825797963606    1.01255844136484    0.85220923491225
O           0.78758522489462    1.16371916059011   -2.22576183973779
H          -0.46791720199113    0.28257450267985   -2.14194065744032
H           0.58219569026869    2.07554910311057   -1.92869347290907
H           1.30858950964469    0.77891557431126   -1.49373472298243
O           0.32222204832078   -1.96871583416610   -0.64743127511522
H          -0.22296044837561   -2.30097141444213    0.19424274385164
H          -0.32652399514182   -1.46858288832926   -1.24532724622979
H           0.98100040438797   -1.17887247784478   -0.31624711005494
N          -1.04072278239292   -2.67525200558452    1.40203640503417
H          -1.46286976449246   -3.59371655444659    1.44584911646244
H          -1.76702952412813   -1.96877461181459    1.46216458650296
H          -0.42302864606198   -2.55431598621003    2.19679191968005
