    26
        -50.44829510  Gyration_radius:  2.45630396069 Dipole_moment: 7.706
 S           1.49112023253063    0.96526581933588    1.09384467247068
O           0.54237389045970    1.99730595743526    0.68254390623092
O           1.66423069650984   -0.00657645545504   -0.02261671224186
O           2.72198648157093    1.42939271620594    1.62264439085310
O           0.73267743839800    0.11331653137442    2.20058287029719
O          -1.25345414923323   -0.87116988577231   -1.79648778644172
H          -1.64126644189189   -1.26936778321111   -2.57648266136406
O           0.29753474880332    3.13923792923310   -1.69916717327282
H           0.35609841435808    2.81959489912775   -0.77383951195374
H           0.98388526956144    3.80148721852639   -1.79224889960160
O          -1.49862942449537    0.36229051668590    0.72827920426005
H          -1.63828498162464    0.02066738953324   -0.16673417607603
H          -0.16956238997055    0.14076956184507    1.83988880910126
H          -0.97159801374184    1.17932450220701    0.61184701296999
O           0.71783581499684    0.60327113442926   -2.45973482775813
H          -0.52248832216942   -0.24238811532714   -2.13383553775237
H           0.50630950111319    1.55791017744758   -2.38378401288542
H           1.26181773906282    0.40921454100350   -1.67120886294613
O           0.33570450592908   -2.06387868219880   -0.16590111512068
H          -0.18494778115447   -2.18930009474401    0.74470754266342
H          -0.33412929398312   -1.72685935078936   -0.84858683300142
H           0.99082661239211   -1.21221799487596   -0.05095854921911
N          -0.96976043798968   -2.26991652754240    2.02736441608406
H          -0.33581536461898   -1.95828034760672    2.75462031204407
H          -1.37887097725764   -3.15434148733880    2.29961809203797
H          -1.70359376755508   -1.57475215953063    1.93564540062220
