    26
        -50.44829512  Gyration_radius:  2.45634260587 Dipole_moment: 7.708
 S           0.50443197575338   -1.98901692223491   -0.37602698764834
O           1.04355833240253   -3.29952372253543   -0.33115737481427
O           1.07584933343464   -1.22996503009673   -1.65007956890372
O          -0.94914461594863   -1.89945301191626   -0.49205856263602
O           0.95369052498490   -1.13333460876556    0.75834654025772
O          -0.67394547408160    1.97136947940169    1.10438670608914
H          -0.86106301906831    2.73273141779228    1.65452010543954
O          -2.74283000561175   -1.78309696042561    1.45863421979637
H          -2.15958808176306   -1.88532263101290    0.67683675586847
H          -2.87282710364878   -2.66648507755882    1.80655338429632
O          -0.86466726726411   -0.16624255039267    2.48065593329173
H          -0.14217397771174   -0.64486798358682    2.02871583242096
H          -0.83660982606008    1.15142430640109    1.69151472142615
H          -1.67303030659164   -0.67594685063973    2.26010734217292
O           1.67695701224695    1.18679735424034    0.42343220166817
H           1.45666028767305    0.13764577405567    0.55894565319047
H           1.77729349041026    1.35849475956949   -0.61416694609590
H           0.81108905739510    1.62597833196365    0.71641103449428
O          -0.88692393958871    0.57492484213437   -1.33740150459328
H           0.41544324220572   -0.52100329155822   -1.72876550917652
H          -1.23317102699153   -0.29455651523240   -1.04946761081566
H          -1.01280194906102    1.16230564469811   -0.57818756298448
N           1.81801380931812    1.57175218165340   -2.10422912711637
H           2.33543037420133    2.35817493830235   -2.47500154580478
H           0.84695779669773    1.64375387416450   -2.39057826374019
H           2.19340135666618    0.71346224158080   -2.49193986608166
