    26
        -50.44829508  Gyration_radius:  2.45636120198 Dipole_moment: 7.707
 S           0.73264278112951    1.38309253129310    1.37864748229583
O          -0.67967633225319    1.18927201266465    0.94437200188087
O           0.88204943740497    2.41436324317762    2.33997923122719
O           1.10105889831404   -0.01203808142786    2.04474771441155
O           1.58379231026352    1.48378676900613    0.19552113590884
O          -1.18050186299936   -0.95911763059879   -1.80143246461934
H          -1.76943438673491   -1.27645242507700   -2.48684439960088
O           1.05549711426472    2.70439538926222   -2.09958292659987
H           1.36168342700675    2.28386608865273   -1.26816452601221
H           1.18825760286213    3.64614275340884   -1.98205650495804
O          -1.33240730933478    1.58004514072900   -1.63020985595550
H          -1.21359085115639    1.62538641975142   -0.66109565509990
H          -0.53788974349657    2.02320346643281   -1.99644177196477
H          -1.23400096915226    0.06052460134125   -1.83265570412494
O           1.28283005694139   -1.03796775748025   -0.42974661893585
H           1.26342388787446   -0.53909998480057    1.24429563511476
H           0.56644812252234   -1.11054475620839   -1.07687256683041
H           1.57322151104838   -0.10376664629986   -0.47199232961961
O          -1.67095611585024   -1.04352092671262    0.72014289866859
H          -1.00822572547292   -1.74734233579156    1.14600527089394
H          -1.26926551270997   -0.05955990754814    0.91540385321903
H          -1.57682015076982   -1.11602394690892   -0.28699789789423
N           0.01304696754898   -2.71349545137180    1.68581425734448
H           0.41225256839740   -2.26059713566296    2.50024297081170
H           0.73441918784043   -2.76473061591566    0.97366861236558
H          -0.27785489349349   -3.64982079391840    1.93525219807385
