    26
        -50.45269166  Gyration_radius:  2.57768935515 Dipole_moment: 4.545
 S          -0.35132442585218    0.61485791563889   -0.63977127611843
O           0.54420244766503    1.71520516080754   -0.07349590812694
O          -0.05917815825211    0.41176483510892   -2.02964253866338
O           0.08733043916441   -0.62202190530377    0.15933025892100
O          -1.72907985473092    0.91164982811678   -0.33508634172366
O          -2.68870598893485   -1.02159646025949   -1.91976999219460
H          -2.39697918551313   -0.72523686554246   -2.78551939533918
H          -2.54419327952875   -0.26924039225177   -1.31789090455862
O           0.66212796249220   -1.91435190545547   -3.14250096057775
H           1.61336340304617   -1.93475028413666   -3.25715900808734
H           0.43288550197037   -1.00056754162015   -2.88268285271208
O           0.18584385279729    0.05909884213414    2.90056339315087
H           0.08452107425526   -0.48022694459017    2.10581101033308
H           1.11354754222140    0.38308140252079    2.86381866170442
O          -0.88259786637906    2.21238247821074    1.89650350589745
H           0.01707463135169    2.04889703426032    0.77853378975690
H          -1.67661249417725    1.91183076477963    1.43311443956821
H          -0.57757729390997    1.44616927187228    2.46432749306092
O          -0.77943577982349   -2.60828437594426   -1.01893234320517
H          -0.21186927466096   -2.61728701157211   -1.82311783762519
H          -0.27443395467901   -1.53990427081390   -0.30208747430237
H          -1.64112232903522   -2.23220157050878   -1.32532792383784
N           2.58221885608959    1.17048480169349    2.20143685437915
H           2.24942544424845    1.39711441716296    1.26977798328897
H           3.44062177807324    0.64215688442658    2.10979741602701
H           2.79994698210225    2.04097589127616    2.66996996098923
