    26
        -50.44829511  Gyration_radius:  2.45636727851 Dipole_moment: 7.709
 S           1.73795307968745    1.10876249162370    0.31831104144153
O           1.82889139959376    0.57263856231668   -1.03769099196900
O           1.93352526060768   -0.14187668116617    1.27931119891403
O           2.68410823910020    2.10973959656942    0.65428869878399
O           0.33088432567622    1.52269575115906    0.58233052538088
O          -2.17861539321790   -0.61190090500242   -0.66300460239333
H          -3.10308417673288   -0.73811519424176   -0.87924257430848
O           0.60322353410247    1.44016620260893   -3.22420255365796
H           1.14509599948229    1.09047152902460   -2.48534864005131
H           1.06824446240712    2.21285011018160   -3.54822104291220
O          -1.28091881969804    0.02039489198542    1.66093336153844
H          -0.54813688953921    0.71707631621131    1.27972365236679
H          -1.75389313545541   -0.27581898077701    0.81421006686734
H          -0.75759182646244   -0.81787531652124    2.03448785407557
O          -1.40225167635003    1.68140325365472   -1.46184316526458
H          -0.78927635468865    1.84727177298934   -0.71881497487550
H          -0.82215040451641    1.62076527195686   -2.25031839770204
H          -1.91326175151242    0.28671153533085   -1.06987286215991
O           0.46267019534453   -1.57828866158858   -0.44802304965682
H          -0.46496717529324   -1.42621312997536   -0.67961080987615
H           0.96783610787713   -0.91708000101866   -0.96417309308227
H           1.47800777125803   -0.82351429031914    0.75714276169985
N           0.02586566068758   -2.02890655202111    2.46716081174171
H           0.91007653886258   -1.67251985178988    2.81213800834998
H           0.21066362152038   -2.54610620288330    1.61363078605134
H          -0.37289859274293   -2.65273152831032    3.15669803070702
