    26
        -50.44829510  Gyration_radius:  2.45634373343 Dipole_moment: 7.709
 S           0.62939635086271    0.94239656288088    1.75133536034921
O          -0.23609728077813    1.50268249552967    0.67529374285971
O          -0.21871303570772   -0.28720696083501    2.29420741868675
O           1.82044809318736    0.35296401705351    1.14445664242921
O           0.86037893006542    1.85578378599682    2.81079630877603
O          -0.49712710036231   -0.41660545339588   -2.26646602842030
H          -0.75429220234991   -0.45907852982150   -3.18807885384583
O           3.22677510618019    1.25965154041545   -0.91373535069825
H           3.79160526920705    1.97066669940908   -0.60760062294897
H           2.80763100302155    0.88443206608855   -0.11040136594848
O          -2.06222122392251    0.20540634140287   -0.32469717951315
H          -1.56627586247583   -0.07211484703659   -1.16453966128869
H          -2.20738273027211   -0.66706380877472    0.25301255242899
H          -1.32648737067292    0.81269616094321    0.18319219658640
O           0.74976807850924    1.75967432867272   -1.80870576598172
H           1.71146821624551    1.61448326231393   -1.68254288375805
H           0.05535613148774    0.43664339307574   -2.16604829098268
H           0.40088461025429    1.89029162961728   -0.90509151289418
O           0.48970443999255   -1.63118040872732    0.08031999913789
H          -0.02888058717616   -0.93834641340357    1.59789035212744
H           0.26536751556586   -1.39628018695461   -0.83168945210597
H           1.23306791938631   -1.04137729061259    0.32190912164816
N          -2.31037308691071   -1.93447140817812    1.05988566688156
H          -2.16838273884063   -1.65609112091439    2.02435937411480
H          -1.51339572212531   -2.49599245677310    0.77759147192000
H          -3.15222271237061   -2.49196340796966    0.99534677043850
