    26
        -50.44829506  Gyration_radius:  2.45636702685 Dipole_moment: 7.708
 S           0.74539031092977    1.03529323613253    1.65004562624473
O           1.71913575516947    1.20899814366527    0.57487189360162
O          -0.62808056638528    1.10336671963554    1.07572980961843
O           0.87644048291370   -0.48482531220989    2.09514187944425
O           0.91630496333260    1.87081556928913    2.78264997250278
O          -1.09434171599093   -0.49352170804120   -2.02944394714494
H          -1.64367481399389   -0.61615731846176   -2.80440456536042
O           1.57635310221316    2.83962279460821   -1.51265901754304
H           1.74416524655019    2.25474193724224   -0.74353694125270
H           1.80605169590069    3.72432326526949   -1.22488446950902
O          -1.84709084349346   -0.91282349227408    0.39204379562989
H          -1.65945210133430   -0.83542413664053   -0.60157144469705
H          -1.31902726573403   -1.75761317870953    0.74357143514528
H          -1.35440992265600   -0.03522126390812    0.78523976010872
O          -0.96286634921034    1.98308685047548   -1.43839443137076
H          -0.93933896199341    1.85680362896639   -0.46942918634080
H          -0.08836842238249    2.36916261442334   -1.65746229030041
H          -1.02383346449882    0.51593977445839   -1.88988243427230
O           1.18904973522835   -1.11782489927773   -0.49542396347745
H           1.05715905546233   -0.89414028002165    1.23220595591637
H           0.53916970845647   -0.99030016198053   -1.20154328340772
H           1.59016504691227   -0.23589955448067   -0.35342893811909
N          -0.47973100977215   -2.92464221512057    1.19214344323721
H          -0.90341621057426   -3.84143667310726    1.25332961412530
H          -0.11572380907016   -2.66450257586434    2.10194509246846
H           0.29997037402032   -2.95782176406684    0.54314660474848
