    26
        -50.44829513  Gyration_radius:  2.45632044552 Dipole_moment: 7.709
 S           0.74598224227042    1.48668237471919    1.25887051953602
O           1.28109043751846    1.76169644962194   -0.07243191611002
O           1.50698748079193    0.18345784203175    1.75740602678233
O           0.90762195658662    2.51850486917215    2.21771350535929
O          -0.66530310079282    1.02620852583147    1.12836915070580
O          -1.34797861572422   -1.15387863042292   -1.55274204090967
H          -2.00357728905676   -1.57356672800984   -2.11073831009867
O           0.04149275755354    2.87523086325402   -2.13616160829650
H           0.01707149077244    3.82371439733085   -2.00184999562674
H           0.59646768613638    2.51541287108172   -1.41204176851704
O          -1.24513007984987   -1.35446876807262    1.00758695922375
H          -1.36382876726786   -1.39810700920177    0.00137180871449
H          -0.38458721876561   -1.91995705814108    1.24405475834752
H          -1.00189257603568   -0.31314763349166    1.16255412057217
O           1.32733891683557   -0.76461837478649   -0.74809396556334
H           1.58457397499912   -0.29420085688801    0.91435577231921
H           0.51231796267691   -0.96908060272955   -1.22893582899639
H           1.42100562310821    0.20847171204319   -0.80370165872020
O          -1.93071666852279    1.30605050191070   -1.22269438929942
H          -1.61177024600010    1.36485426400162   -0.30064590982480
H          -1.33355464413679    1.89773544743138   -1.72783351445875
H          -1.59709545168915   -0.16376155342348   -1.51939626227828
N           0.89302226610868   -2.67404487381348    1.50179175751176
H           1.36986450388599   -2.15990621704714    2.23402120853779
H           1.43628673824999   -2.57803087363170    0.64987422280597
H           0.84431062034726   -3.65125096876913    1.75929735828134
