    26
        -50.44829514  Gyration_radius:  2.45631579679 Dipole_moment: 7.708
 S           1.20143251039394    1.15440894194572    1.25509306982511
O           1.56366066719013    0.56437036059831   -0.06458201770082
O           0.87970886187921   -0.12180139236265    2.14591648895793
O           2.26293317449906    1.88357258041087    1.84803088021583
O          -0.06814788986253    1.86552487179958    1.12510856797650
O          -1.08126600533732   -0.83611370739732   -1.92120652078240
H          -1.39685826467732   -1.16427147804958   -2.76385075884358
O          -0.91556211304763    3.34153675321986   -0.90931696620576
H          -0.66097597088882    2.86908899220276   -0.08845162196481
H          -0.49381086255963    4.20057850852594   -0.85947993281158
O          -1.45076287693683   -0.33502930182499    0.82995994545314
H          -1.23308867764579    0.61718934249472    0.89843074460085
H          -1.56363350456640   -0.50218617435644   -0.11692853230771
H          -0.01459531380910   -0.32574199016777    1.82413973800795
O           0.22383520340459    1.32731550991285   -2.26237246285895
H           0.87990803543993    1.16428706368791   -1.55644728788320
H          -0.63345170269812    0.06088519692613   -2.11691035341941
H          -0.27718364464234    2.11277047189997   -1.95585200067509
O           0.96847030493125   -1.73964023637546   -0.66077336518224
H           0.15875443017261   -1.51156885499515   -1.22709146845919
H           1.31951930696209   -0.76213099715539   -0.36248119684838
H           0.61390070275594   -2.22769804425559    0.20656125866281
N           0.03535443763731   -2.84468477229617    1.45238911027355
H           0.60549321057166   -2.50064178826409    2.21688587304406
H          -0.03387848489683   -3.85202471357736    1.51644265741513
H          -0.88975550427280   -2.43799515254482    1.54678617150657
