    26
        -50.44829503  Gyration_radius:  2.45642067556 Dipole_moment: 7.712
 S           1.12190164915841    0.90285978857010    1.50834738435966
O           1.61507577254363    0.32746759650173    0.22525592154438
O           2.15943562605730    1.43866670801258    2.31241078342737
O           0.00276088990749    1.79927649357128    1.22805236264778
O           0.48196832622310   -0.35163191857756    2.24513437480343
O          -0.85049699585273   -0.57437462684375   -2.12285762648048
H          -1.06277163959579   -0.81160191825055   -3.02618522037730
O          -0.27209246632804    3.48169906662346   -0.80436729054698
H           0.25223985422799    4.26370064486065   -0.62593203383888
H          -0.22936199205076    2.93773355670069    0.01056404021839
O          -1.60249883034435   -0.15541215072550    0.56327971761105
H          -1.57796322096618   -0.25890996144621   -0.39896307071649
H          -0.36549329598009   -0.40576608334738    1.77221409723581
H          -1.26870233282662    0.74950486513640    0.73251682711089
O           0.78218981696840    1.38362075148586   -2.09805421243369
H           0.35248936689006    2.22045084314276   -1.82082031529702
H           1.28129657740199    1.09162777364640   -1.31002998833480
H          -0.25575464793144    0.25413965746047   -2.18059701576929
O           0.81320767942572   -1.83143786735813   -0.62036213355470
H           0.14942011625873   -1.45867700180603   -1.29041233682050
H           1.24179690263338   -0.93264782503548   -0.20146354906894
H           0.25411306227718   -2.30197612097862    0.14271011851172
N          -0.60459353109640   -2.88374836672575    1.23410047739322
H          -0.82375356775708   -3.87132656275549    1.21458751886956
H          -1.46640150315959   -2.34806128843902    1.20906288840662
H          -0.12801163608229   -2.66517604342569    2.10180829109916
