    26
        -50.44829506  Gyration_radius:  2.45637110581 Dipole_moment: 7.707
 S           1.67920004509027    0.61238050705271    1.07530239274489
O           2.67986777346969    1.35633030059728    1.75005363550430
O           0.61116503718325    1.46921218933203    0.48702767726316
O           2.15440797724006   -0.32106633659741    0.05689620373827
O           0.88914886393849   -0.27906805627040    2.12751782783748
O          -1.66964178479592   -0.14423107239546   -1.65861311633611
H          -2.35397579487794   -0.06398865606731   -2.32389616128765
O           2.53446695852240    0.13407177509625   -2.52857979397643
H           2.48454579957938   -0.10726672466281   -1.57932313070819
H           3.36333958310375    0.60255926737025   -2.63729668134734
O          -1.76590636122132    0.89778570690017    0.68909939379953
H          -1.87287609634036    0.49993349907923   -0.23749529349193
H          -1.86121357296735    0.10508031473697    1.38082832075460
H          -0.72943134252263    1.20378911359995    0.68656254155280
O           0.23712361072519    1.46866849711100   -2.17152318622685
H          -0.91021398083796    0.46937916789337   -1.95885142695856
H           0.44993684580663    1.67641715772070   -1.24046205973846
H           1.03285201656537    1.00459410040421   -2.50811363358124
O          -0.06639966879074   -1.70258723843863    0.06094065396170
H           0.49170995734856   -0.93079077660129    1.52573420736194
H          -0.63381110607003   -1.37397570379793   -0.65132226416339
H           0.83704001676230   -1.40615232625098   -0.17308150416071
N          -1.92808842064192   -1.08131944539386    2.30597643937534
H          -1.24231850632070   -0.90118028394970    3.03060409675850
H          -1.59920743391029   -1.86792190668179    1.75522296319494
H          -2.81172043603572   -1.32065305978287    2.73679189813039
