    26
        -50.44829513  Gyration_radius:  2.45636025558 Dipole_moment: 7.708
 S           1.40892701233919    0.63842054176292    1.39970311469253
O           2.59835012062371    0.99227122693860    2.08536799639497
O           0.36107303104403    1.65605208403007    1.37042975955561
O           1.65618245501018    0.15743895263274    0.01105525030293
O           0.75086614330163   -0.62310561834330    2.10780866708272
O          -1.19158265501166   -0.27470602598997   -2.01583118316431
H          -1.55085242337455   -0.39814126926644   -2.89505272180801
O          -0.02441699613863    3.55479055134320   -0.44129500487449
H           0.07733075088082    2.92868007916185    0.30667920960931
H           0.59566581320421    4.26611200617929   -0.27455893290167
O          -1.51483468009809   -0.06769851287157    0.77859162371562
H          -1.63494378922862   -0.07354160007484   -0.18201110592551
H          -0.15496429344693   -0.55178913169439    1.76245457104538
H          -1.06930425887827    0.78152893011800    0.97645558094920
O           0.62110231938624    1.51749046466670   -2.05943846906453
H          -0.52846819378699    0.49902703744854   -2.08744434101418
H           0.32167447527307    2.35563979020169   -1.64745358476173
H           1.19258655160903    1.10267298286738   -1.38364933677538
O           0.52647602378316   -1.82293932348212   -0.89448094092967
H          -0.18210861876777   -1.32567986824667   -1.42280736129932
H           1.09954983566588   -1.01342777440296   -0.46556429149710
H           0.03331467933750   -2.31749278992793   -0.10189880239770
N          -0.72162408175799   -2.92985493569154    1.04834809299983
H          -0.10957091748567   -2.84458800588517    1.85205400601292
H          -1.04129975950291   -3.88689015315527    0.97394720149073
H          -1.51912855398328   -2.32026965831708    1.19859100256310
