    26
        -50.44829503  Gyration_radius:  2.45639726431 Dipole_moment: 7.710
 S           1.45308773006096    0.57619283827683    1.38072153068153
O           1.66222956476543   -0.04822987471662    0.04391954312746
O           0.63079557921610   -0.52997864670315    2.17210075141718
O           2.66533382286221    0.83858660494636    2.06750919420606
O           0.54086755331910    1.70855509419309    1.23878946920580
O          -1.18260841741671   -0.29437594369551   -2.01867890591756
H          -1.53909795479078   -0.44640482754246   -2.89455131416814
O           0.43153554529764    3.48103104680372   -0.73170283346797
H           1.13380417432476    4.12083231908068   -0.60594773650601
H           0.43947380061597    2.91254242230500    0.06743743990249
O          -1.52539178533438    0.18493517200534    0.73977904787671
H          -1.62943399067127    0.11308674578950   -0.22003155047490
H          -0.25319379366447   -0.37730987143612    1.79789574630855
H          -0.98022375997188    0.98628826705965    0.87949062991716
O           0.84178151094887    1.24897306815356   -2.15855809445471
H           1.34467799708519    0.82531424471359   -1.43540109031043
H          -0.42639343349440    0.38250879794977   -2.13485486292348
H           0.64360252620581    2.14984229824522   -1.82541719197600
O           0.30806464658880   -1.94281079783431   -0.72798749537540
H          -0.32334703445288   -1.40794082425379   -1.31430215049763
H           0.97078732628089   -1.17748816965024   -0.35094078300434
H          -0.25644704749440   -2.30421118757149    0.08864784755952
N          -1.10041820235549   -2.71937294682358    1.26439590018836
H          -0.49558853257401   -2.64292564000576    2.07443797836642
H          -1.53648008646507   -3.63231650322777    1.26008666609080
H          -1.81741774888616   -2.00532369605866    1.34316224423207
