    26
        -50.45812150  Gyration_radius:  2.42445075184 Dipole_moment: 3.421
 S           0.73026428465802    1.53672332365856    0.59642484990899
O          -0.63352349550321    1.00252903951264    1.08840162211996
O           1.49003522813705    1.87916712514544    1.75170566722134
O           1.36226108054803    0.34276842581167   -0.14563558226675
O           0.52463558262205    2.55729968295998   -0.39593888877293
O          -0.97747317309546   -2.10341273334094   -0.85078973586261
H          -1.26130674486419   -2.95678425819275   -1.18097664277353
O          -0.49774444422124    1.56677528540397   -2.57529894830292
H          -0.04754083828811    1.97582788268826   -1.79236107269656
H          -0.68104403317206    2.28744517627566   -3.18026309266880
O          -2.15813269707265    0.34344770156928   -0.82085831070203
H          -1.29291718164249    0.79958356917329    0.33092868319968
H          -1.72291228784880    0.76253544888960   -1.58835567297392
H          -1.92015809750501   -0.60329730585215   -0.84622265742730
O           0.69502441395412   -0.92281581258318   -2.51980277262243
H           0.25198463547078   -0.10233900875526   -2.79180686028974
H           1.35529720070660   -0.63317689529285   -1.87745438096249
H          -0.32099849400234   -1.75263850773370   -1.51059617029936
O           0.92909390333838   -1.72261275452793    1.14378219785540
H           0.71568063248582   -1.31824711453796    2.04111793579929
H           0.09985827749094   -1.97694806759340    0.70455659875764
H           1.26512081353506   -0.54947031807586    0.42768408163361
N           0.54514073869946   -0.31747642951323    3.32660343565776
H           0.96143339405162    0.52853863999947    2.93617533208365
H           1.01115333471531   -0.52246032395410    4.20172086841682
H          -0.42323202319756   -0.10096175113380    3.52725950596316
