    26
        -50.45300974  Gyration_radius:  2.4348704591 Dipole_moment: 5.196
 S           1.38651640510459    0.64855865295326    1.43043152096144
O           2.18875439186049   -0.34152449639668    0.57062602605339
O           2.10794292348866    0.98242763460748    2.60019751461285
O           1.00311564282812    1.76581567549479    0.58038973556576
O           0.09539833563154   -0.11611740458075    1.80080360221482
O          -0.34541830514745   -0.15611558581265   -2.29301429610130
H          -0.69857990375405    0.00154063130081   -3.16933805123630
O          -1.40277551125689    2.90611795441570    0.32094141370706
H          -0.45597030179212    2.67034280877679    0.37228827173063
H          -1.59674617795603    3.41478786498717    1.10954751505037
O          -1.68740382145260    0.26872797915459    0.03347881909069
H          -0.62436184895507    0.02452582098859    1.08385064231290
H          -1.79876097150623    1.24201312899595    0.09953027719534
H          -1.28161393999841    0.11459338861793   -0.84334842034618
O           1.85235030316859    1.20172621397126   -1.85455183594813
H           1.58690818098351    1.57146770956708   -0.98623426673053
H           2.58740225615816    0.61315828988908   -1.66337914527591
H           0.47548413037110    0.40155911681308   -2.21358014494730
O           0.73867036966441   -2.01852774079462   -0.59515726006464
H           1.59484110854961   -1.06108949245534    0.10554556211525
H           0.00251838247866   -2.30667512367053    0.01267940168697
H           0.31466388776637   -1.53097972198177   -1.32068487971117
N          -1.31230240796008   -2.58773776309390    1.02355260185449
H          -2.02482988250781   -1.92548760666543    0.73894006564145
H          -0.96514695671397   -2.28510246082369    1.92570325118332
H          -1.74065627905178   -3.49800546425772    1.13078206938444
