    26
        -50.45812147  Gyration_radius:  2.42459628694 Dipole_moment: 3.420
 S           1.03869097434894    0.08569513125376    1.47101750164738
O           1.12000699011806    1.45787215906360    1.89444247958009
O          -0.43232149844616   -0.38544230411667    1.50118635354450
O           1.41033410965719    0.07955595893807   -0.02503952619403
O           1.80394452752218   -0.87631246422492    2.19060426229326
O          -1.39831742380156   -0.08999575036012   -2.03490296677982
H          -1.85752942527719   -0.15622915385565   -2.87307281432657
O          -0.00505262322261    3.05106513969966    0.17071281416016
H           0.49218216496556    2.49106712149284    0.82047440743394
H           0.00981130392295    3.94179989452675    0.52468242767359
O          -1.97997983032712    1.20241548186522    0.28245632101482
H          -1.08617861328380    0.28019292508456    1.07722428945639
H          -1.42542346409108    2.00089295524607    0.18714822090116
H          -1.96663456688038    0.74724808538593   -0.58145336302573
O           0.57626030759636    1.66099887517751   -2.14336967901134
H           0.34768197867442    2.34827427730309   -1.49622681863916
H           1.25528484942803    1.13597752321174   -1.70087631820495
H          -0.64896457639755    0.54864727662088   -2.17628968794130
O           0.45181315240575   -1.94181282529230   -1.08074799346440
H           1.08338141564900   -0.82064902192092   -0.48892995228550
H           0.29742660899741   -2.50279549141966   -0.25899332504609
H          -0.39297302121155   -1.55164784422974   -1.36221421973228
N           0.30567270267937   -3.13071207835401    1.25489904466544
H           0.92375619658467   -2.45900128236316    1.71119172876641
H           0.67137376256578   -4.05962837762829    1.42332646895711
H          -0.59424601217484   -3.05747620110189    1.71275033455437
