    26
        -50.45812140  Gyration_radius:  2.42448890533 Dipole_moment: 3.421
 S           0.41936949538847    0.63520134553354    1.63409718211458
O           0.44402072531795    2.07203408340559    1.57355845526301
O          -0.98883393682847    0.11939758993868    1.26284752320536
O           1.32038006113201    0.14540212275112    0.48322029599332
O           0.78320167828243    0.01759472099408    2.86498190439178
O          -0.54213314188798   -0.85007557465343   -2.25525225947552
H          -0.65950797621917   -1.22139600669925   -3.13054664321406
O           0.17093455414730    2.92446583293099   -0.87067310633423
H           0.34465544120940    2.64544990004431    0.06474073412204
H           0.12223228183210    3.88170696034046   -0.85551797669948
O          -1.84195069276570    1.11384736125368   -0.90170990467549
H          -1.23113548663003    1.86322696060516   -1.04132690015901
H          -1.54353909039981    0.39538204355608   -1.49201323020374
H          -1.38344767511382    0.56544172203882    0.42884265548582
O           1.46138063323432    0.86969370278399   -2.18867476380062
H           1.06298648091388    1.72124643779968   -1.94469936998295
H           1.88294358350202    0.56413458892970   -1.37536724570370
H           0.25352938521085   -0.25545811077161   -2.30807907693216
O           0.66836233173656   -2.16385561196073   -0.11756323451093
H           0.17542107712208   -2.42231001063857    0.72154536515285
H           0.02260944295318   -1.93953037955443   -0.80881727367273
H           1.11996993647567   -0.87542151781432    0.25858382115878
N          -0.43028276133490   -2.50085040833086    2.24230576210871
H          -0.22831719812045   -3.29647462190344    2.83490384410778
H          -1.42714240228834   -2.32760243272066    2.27459882712405
H           0.02429325312852   -1.68125070785955    2.64601460513163
