    26
        -50.45812141  Gyration_radius:  2.42446782701 Dipole_moment: 3.421
 S           0.99205815512863    0.61448550084807    1.37418653159027
O           1.43175988878703    1.94757484475188    1.06064507631258
O          -0.55187735323797    0.56510289578703    1.40155852940144
O           1.37989168488163   -0.25717278641003    0.16339108095771
O           1.45370141050785    0.03322207252153    2.58988692766847
O          -1.32772642980793   -0.83511512622797   -1.90859661756803
H          -1.77005009453246   -1.22896886633737   -2.66160735678365
O           0.81597815433323    2.59998812221271   -1.38275572567402
H           1.12952746482267    2.37131049067137   -0.47037994284778
H           1.06316339672052    3.51520114791518   -1.52484058424153
O          -1.58692278057318    1.57169262849077   -0.67623231524196
H          -0.83539290944931    2.05675939281492   -1.06880716266610
H          -1.67896173298281    0.74106436490677   -1.18149493449633
H          -0.99238696763469    1.03393453850964    0.60375971276114
O           1.04828054371942    0.11463018130480   -2.56343252735238
H           1.00051864748586    1.06971325027383   -2.39339382212231
H           1.55072579780549   -0.23381634401078   -1.81598985542318
H          -0.43091885216611   -0.54846785822316   -2.22950768512211
O          -0.06664738373280   -2.26337993920082    0.12381098486828
H          -0.38408415272270   -2.25971451908895    1.07937665515168
H          -0.76853266088829   -1.90467970205019   -0.44524558541918
H           0.83158542812834   -1.16934876499594    0.16698094109237
N          -0.57790770697675   -1.98319351201003    2.68303616677356
H           0.18940585761221   -1.32754189949052    2.83375281054997
H          -0.48155033967698   -2.73892283349138    3.34979686563193
H          -1.43363706555366   -1.48435727947110    2.89210183219716
