    26
        -50.45812138  Gyration_radius:  2.42453055511 Dipole_moment: 3.419
 S           1.38676504485723    0.80753257625561    0.82051123440226
O           1.55273296743697   -0.39184328732030   -0.13912551941861
O           1.67890920358729    2.03230901256140    0.12526627661203
O          -0.12325751685105    0.84307357374261    1.12879965662434
O           2.14008653187837    0.51568029232280    1.99363041664421
O          -1.92443025218757   -1.07217034380077   -1.11810351495678
H          -2.72254716498919   -1.47362034408360   -1.46399559061832
O          -0.10383295299982    2.53561037918795   -1.70338578860009
H           0.55997876213144    2.41982327591686   -0.97603971979681
H           0.16757876711900    3.31828708386018   -2.18577290816424
O          -2.31558908961920    1.45391817788087   -0.45350053988867
H          -1.71999126484497    1.96658350610644   -1.02430735370440
H          -2.17012165619511   -0.14576820205850   -0.85185588241471
H          -1.87161446200597    1.44472626095493    0.40403612718729
O          -0.92845726824719   -1.47323132417993    1.45258578990342
H          -0.05128879299290   -1.93095475723539    1.63955239336030
H          -0.48223979182768   -0.13281716687545    1.35603226569177
H          -1.18865770720343   -1.64885634081406    0.53247694918410
O           0.29978819842820   -0.07108170814837   -2.31382674492701
H           0.09784172310873    0.88452455472993   -2.29831504916332
H           1.11414691317582   -0.25053020750484   -1.05455988463782
H          -0.51894394646972   -0.53483270823956   -2.05254714506276
N           1.50901919896445   -2.27757739922400    2.00157008631552
H           1.86236489321566   -1.33060950190352    2.14231705379790
H           2.01564386291357   -2.66464200000747    1.21518633964756
H           1.73611578961719   -2.82353341212538    2.82337106199382
