    26
        -50.45812142  Gyration_radius:  2.42453460564 Dipole_moment: 3.420
 S           1.38386792342286   -0.73760798723537    0.88902353518527
O           1.25701104330263   -0.28603385928229   -0.57944827757360
O          -0.07302425470108   -0.78726032651122    1.40074223516772
O           1.90488514483620   -2.06063442663622    0.97256323261241
O           2.10290642124419    0.30854578127246    1.56522634368120
O          -1.86963442316367    1.03535691238749   -1.23869962221130
H          -2.54871836225996    1.40517701592015   -1.80427377981224
O           1.20449218381438    2.65993179973943    0.90227128162959
H           1.62255414887751    1.79085853518368    1.13236424782178
H           1.66187805534735    3.31954940605930    1.42631062184608
O          -0.66629996557751   -1.44937585207307   -1.61225110993533
H          -1.34197268993089   -0.77787903564177   -1.41810177987745
H           0.48980862494492   -0.83240074687954   -1.07474676771913
H          -0.76704502857512   -2.21386770837354   -0.96476612920462
O           0.48948374598837    2.12530908167468   -1.71068405693451
H           0.74489926843032    2.55835774377917   -0.87964341684344
H           1.01758292181614    1.31701857852606   -1.72823070729437
H          -1.01429699421941    1.46316473301390   -1.51222339729063
O          -1.19130241646326    1.48195747983896    1.35345099984122
H          -0.52001008085557    0.13308398710450    1.45936988820949
H          -0.43190129434306    2.08564721902383    1.23921707459348
H          -1.61227298310639    1.39223687514485    0.47685106334498
N          -0.54299628212982   -3.33618569149592    0.20842381711855
H          -0.52528931818639   -4.32209992632663   -0.02105368668130
H          -1.16469172893061   -3.20616096311885    0.99670920837531
H           0.39008633041302   -3.06668864510553    0.52159917197024
