    26
        -50.45812142  Gyration_radius:  2.4245118548 Dipole_moment: 3.421
 S          -0.85147107189699   -0.19637724002887    1.57680376824270
O          -1.63495218982428   -1.24033767901480    2.14708856752193
O          -0.72932547956851    1.02996212282281    2.31835645307419
O           0.55104152738238   -0.77970633708940    1.29471481074007
O          -1.38674839070179    0.19889935056354    0.18628806382641
O           1.14258605669178    0.30203185118704   -2.16938440483759
H           1.49451838320929    0.40779424754500   -3.05411851762511
O           0.36861407024631    2.90259439274787    0.88196292927009
H          -0.11285143800127    2.24192923214599    1.44297296345734
H           0.49433985953252    3.67580058332380    1.43445552013558
O          -0.62107936739409    2.18176415551175   -1.59301797986463
H          -0.24542294440180    2.66618805889836   -0.83961974411578
H           0.45914942214806    1.01538178707020   -2.05316555082319
H          -1.30124004356704    1.62124710092902   -1.19839243984640
O           2.12216785669970    0.92768663844701    0.28569873182520
H           1.96093449364740    0.70348542885044   -0.65102207009013
H           1.65423310624689    1.76776288314054    0.45740042229883
H           1.22436404540620   -0.08587311594757    0.95478061539508
O          -0.78638300318288   -1.56944740624613   -1.43589667147100
H           0.06021675614638   -1.19244778414514   -1.72963210086728
H          -0.60528025666891   -2.32730103503070   -0.79813125793751
H          -1.21728366128739   -0.58199472881761   -0.51655647379127
N          -0.51451717584244   -3.30759990208846    0.51209398867391
H           0.43353791674744   -3.42336222727567    0.84764715542355
H          -0.96067938526090   -4.21638808214048    0.50545988210708
H          -0.99846909649377   -2.72169229534759    1.19321334927010
