    26
        -50.45812142  Gyration_radius:  2.42451036569 Dipole_moment: 3.420
 S           1.41564895591424    1.04822938723719    0.38333755494717
O           1.51713009919448   -0.22560436083407   -0.48496585005710
O           0.02921060087801    0.94616440728381    1.04942518391061
O           2.45473478623500    0.97942475498315    1.35519827993997
O           1.36547609019980    2.21128287630262   -0.46135524538073
O          -1.96565920207498   -1.40458360691108   -0.51653799147767
H          -2.75922299667163   -1.93082971502191   -0.62194765800940
O          -0.84802503585048    2.29716285916354   -1.82827217048884
H          -0.02294697995508    2.34119940108576   -1.28024076113475
H          -0.80795168840408    3.04571092919248   -2.42573739332126
O          -2.53576480507637    1.11950078335779    0.01270884609861
H          -2.16627892216703    1.62849999313528   -0.72741892296292
H          -2.26790650721941   -0.48808171401402   -0.27546287282848
H          -1.90718526611653    1.25851220347038    0.73249747046242
O          -0.24243859059550   -0.29894554491476   -2.30161643146854
H          -0.90523019007180   -0.82009632677754   -1.80885819454402
H          -0.56496086916751    0.62298762490073   -2.31593594910909
H           0.86116207942002   -0.24010193015629   -1.27225748082517
O          -0.35100223319517   -1.39441226222812    1.75381020931670
H          -0.79255071254280   -1.70226846993947    0.94425125647536
H           0.60000018836526   -1.72523836756056    1.75588501431924
H          -0.12861037023683   -0.03162855782878    1.43871145890104
N           2.23422446107419   -1.84864059007364    1.74865762486284
H           2.47670389188493   -0.85778389867227    1.71996075922279
H           2.59048347423847   -2.26133633585810    0.89567283377348
H           2.72095974194012   -2.26912352932120    2.53049043937911
