    26
        -50.45812140  Gyration_radius:  2.42451897182 Dipole_moment: 3.421
 S           0.60433534461706    0.17157512903618    1.68966344121624
O          -0.87390228653109    0.38452142403147    1.29436190062117
O           0.61732857374716   -0.69339381316525    2.82126555680765
O           1.23205853376301   -0.51678564096617    0.46149974514241
O           1.26441672312401    1.44360241970100    1.81216697289614
O          -0.78923848556959   -0.22960205420876   -2.32964165770898
H          -1.03047745974124   -0.39672820519217   -3.24159958441759
O           1.47518919951275    2.63035209810532   -0.49490499976751
H           1.47741095731533    2.18742585359811    0.39214520603171
H           1.85487073213139    3.49960316025109   -0.35647955241018
O          -1.12877955375007    1.91828690426642   -0.70175220180602
H          -1.16014507428730    1.22298206698900   -1.38677362816956
H          -1.00340113223761    1.06049114788208    0.53500115184762
H          -0.24528373561986    2.33071885792638   -0.76119622190710
O           1.76514203485664    0.40149704163227   -2.09899171487550
H           1.77699710870227    1.30295652998073   -1.73759404789854
H           1.98153722813407   -0.15920516436879   -1.34311902335601
H           0.18862089441084   -0.04744084907993   -2.32789292967902
O          -0.35479022502092   -2.20213865468367   -0.41070291690220
H          -0.93797710112614   -2.31920546738161    0.40170983832614
H          -0.81196937756145   -1.62972026178445   -1.04981261450234
H           0.60811325532740   -1.30581909164578    0.11425119406962
N          -1.56476854077517   -2.31252036264342    1.91605269111604
H          -1.75527373227721   -3.18292422634743    2.39676480602809
H          -2.38237274080065   -1.72110061996278    1.99715475119506
H          -0.80764114034626   -1.83742820198529    2.40842383811249
