    26
        -50.45812152  Gyration_radius:  2.42457089988 Dipole_moment: 3.419
 S           1.49839316110591    0.11976315698836    0.99551734570143
O           0.09189535897123   -0.07114072865878    1.60551182777045
O           1.30691385577406   -0.17770711708890   -0.50484666831532
O           1.88273086094604    1.50320327471294    1.07985032732038
O           2.35465159548780   -0.84394856766964    1.60136789808846
O          -2.03394563477223   -0.14453277942249   -1.39518008593283
H          -2.76711564288385   -0.25265394533762   -2.00227910912715
O           0.40657983701829    2.99272357344991   -0.46210065138919
H           1.03537775265842    2.45756410137685    0.08675694072125
H           0.64977767995230    3.90949479755057   -0.32314118374337
O          -1.59619561676847    1.56486395167546    0.66980683863043
H          -1.02484644864172    2.22802199783464    0.23635014974821
H          -1.94468968551777    0.98958115311571   -0.03825365473627
H          -0.58936877326518    0.62875218196126    1.29506199293313
O          -0.04199504987799    1.18913452985731   -2.50411994429801
H           0.05680333952719    1.99519605216144   -1.97124604610048
H           0.68551849834767    0.62384206074313   -2.21494101211565
H          -1.31672701027176    0.32136975867755   -1.90308466335612
O          -0.19042929932638   -2.13148193428214   -0.75021584801668
H          -1.02933934297554   -1.64390147349282   -0.81004435805849
H           0.73499856812885   -1.06465370109441   -0.64131247492327
H          -0.10413786351430   -2.52548007136220    0.17234316221583
N           0.37276147945734   -2.90921479791883    1.69269765749314
H           0.66547375409038   -3.85238849830359    1.91574642529101
H          -0.28893367695239   -2.60870022044102    2.39746960334858
H           1.18584831329666   -2.29770675503222    1.77228549085237
