    26
        -50.47249792  Gyration_radius:  2.40838001091 Dipole_moment: 3.023
 S          -0.94908876873734   -1.03646625725461   -0.12399273176595
O          -1.38319831212638   -2.52902951540018   -0.21151324258342
O          -1.76416046052336   -0.26547847726509   -1.06909825748983
O          -1.15015480400189   -0.61557247446104    1.24358689773868
O           0.45611676435098   -0.95781232766820   -0.52673285215317
O           0.79818491190737   -1.36603291505350    2.96856699493413
H           0.04923827337699   -1.15327353979360    2.38161094054449
H           0.48099624530405   -2.03562766870470    3.57535390623904
O           1.62024434170478    1.16565770367130   -1.65478819157371
H           1.26314778625106    0.29231096896433   -1.39039576858163
H           2.30741072670512    1.35015367573848   -1.00663888800914
O          -0.24554268967400    1.89073190040327    1.67727535848327
H          -0.56468897130421    2.20325059198608    0.20648166894159
H          -0.76926248159396    1.07645760499134    1.78352372077113
O          -0.82930871951593   -2.12861189952270   -2.75536079567051
H          -1.30892891504492   -1.32580093547129   -2.49290629011894
H           0.10323258092614   -1.93165128951248   -2.62412065552590
H          -1.26178696543028   -2.73349482096535   -1.16046703889269
O           1.95755817670207    0.44987926775108    1.24933446954549
H           0.68163857686893    1.55394261376170    1.64401923612052
H           1.98855711507017   -0.05707654930380    2.07094229223353
H           1.48875482751807   -0.14658687620759    0.63541728040133
N          -0.72042583047343    2.13510974386237   -0.86113954602992
H          -1.27778353623848    1.25031147532742   -1.01244875216373
H           0.22090342958999    1.96709848547608   -1.30356003931679
H          -1.19165331162450    2.94761151465820   -1.24294971609355
