    26
        -50.45812144  Gyration_radius:  2.42459067554 Dipole_moment: 3.420
 S           1.37667602746436    1.09011855080054   -0.40758228534693
O           0.79206592047907   -0.11912149044479   -1.16406913018352
O           2.79080155205685    0.97678069508317   -0.27981670054212
O           0.85579205133594    2.25876516829136   -1.06460382760112
O           0.77917244762368    0.97771273381968    1.01266688389544
O          -1.89759491783382   -1.49466026270187    0.51812090732830
H          -2.59161774392772   -2.14079531667237    0.65464966337451
O          -1.68944901723104    2.01751740376501   -1.55400182403703
H          -0.70955085469173    2.12580880610919   -1.44878936984102
H          -2.00741193363246    2.84185234243055   -1.92588700034400
O          -1.74365189233911    1.17090232973374    1.01725715265920
H          -1.92612978300936    1.53139678481792    0.12792333990301
H          -1.93958288194057    0.21498458740804    0.97774346720120
H          -0.23422864474481    1.12690327544825    1.04568688565787
O           0.81795162197955   -2.08907760879763    0.33190350544132
H          -0.07271580594119   -1.97851843319752    0.70557209126397
H           0.86732346220982   -1.00199941158956   -0.57485476264866
H           1.49821814416306   -1.77851639752632    1.00615515492395
O          -1.78483312825823   -0.70588133388425   -2.00013428623262
H          -1.97207488260025    0.24699055815407   -1.98087039378618
H          -0.82816204697796   -0.75654183193925   -2.12150073958321
H          -1.89412851306054   -1.28945090494046   -0.45517797620968
N           2.69175942317865   -0.98666831068090    1.80290463096537
H           2.92144331389244   -0.28152609970158    1.10189616600434
H           3.54577173310978   -1.46735011158570    2.05715560203644
H           2.35415633869334   -0.48962573220157    2.61765285569971
