    26
        -50.45812143  Gyration_radius:  2.42450524766 Dipole_moment: 3.421
 S           0.37713656533008    1.69013859716427    0.50096332628888
O          -1.00269039331127    1.03100109402229    0.72107045593646
O           0.76106426591270    2.28625151407168    1.73635229778812
O           1.30819144091352    0.51506302380342    0.14221307595390
O           0.33477613840254    2.53272485622892   -0.66392521191787
O          -0.48502437113831   -2.31486535661850   -0.71337512605979
H          -0.57852133619778   -3.23557468992631   -0.96104071825247
O           0.03905316094741    1.13239454592162   -2.83812740737428
H           0.21917682895621    1.69989051406524   -2.04534621598453
H          -0.05484523858661    1.73488002149379   -3.57778365170179
O          -1.88576412766094   -0.08276297451210   -1.37210134525305
H          -1.54940709593010   -0.98011756433205   -1.18418733736437
H          -1.41176895931382    0.63832750379774   -0.13262580980566
H          -1.31001183100899    0.29277166548009   -2.06613096108612
O           1.43445511192067   -1.12866000128601   -2.08622401353151
H           0.99448683659909   -0.42393868575403   -2.58940141932494
H           1.86451861256242   -0.66505334124001   -1.35640492495249
H           0.28205947378068   -1.96063412104931   -1.23829336185906
O           0.77066675868918   -1.40801607402169    1.60237829741687
H           0.28433886540012   -0.92662007724080    2.34100101083946
H           0.12009915043409   -1.83434369941307    1.01916547066612
H           1.15812558915352   -0.29965207989961    0.81017934590080
N          -0.32830831640468    0.19730792106119    3.36450242826896
H           0.08440197112855    1.03708499323969    2.95724770438555
H          -0.09377845714162    0.17724786493391    4.34917092177142
H          -1.33243064343537    0.29515454000958    3.28072317925659
