    26
        -50.45812146  Gyration_radius:  2.42454756321 Dipole_moment: 3.420
 S           0.65898457777265    0.49999148277279    1.60131820399887
O           0.87928466636742    1.92116668388938    1.58148589083267
O          -0.83670807990409    0.19860296849866    1.35874785796074
O           1.36803697575480   -0.05779193497455    0.35144300721020
O           1.04879701610409   -0.21474822427164    2.77020130731833
O          -0.86916109737360   -0.66890164253797   -2.21395296189174
H          -1.12026721819889   -0.98235997637790   -3.08371172863143
O           0.49462587815691    2.90897251535369   -0.79578340814618
H           0.71648047704269    2.56816895250130    0.10843343497415
H           0.58382025250636    3.86220198357452   -0.74759537042718
O          -1.74577911371535    1.39306925536110   -0.67815760986025
H          -1.05247315433598    2.05767346368099   -0.85621910532922
H          -1.60871887722814    0.66711134260274   -1.31683439843027
H          -1.24297221796235    0.73002923956681    0.58238096660516
O           1.35260262027724    0.75705368280971   -2.29793674017810
H          -0.00682812482058   -0.18665576681947   -2.32871164493251
H           1.10237889145603    1.64326983383234   -1.98902667368694
H           1.80331707286676    0.36129756178897   -1.54114018106579
O           0.34325798715796   -2.22762389639406   -0.24832266074218
H           1.00561164134769   -1.03111271345311    0.11808764997408
H          -0.09837492883330   -2.45239295516122    0.62824978736525
H          -0.32776911433259   -1.88731375676156   -0.86396400004501
N          -0.55997467927435   -2.51398573004817    2.19939767423606
H           0.04136451523095   -1.78205511077256    2.57891475488881
H          -0.41434401142074   -3.35479277001229    2.74425174307044
H          -1.51519195464474   -2.20887448864491    2.33844421492746
