    26
        -50.45812145  Gyration_radius:  2.42456926355 Dipole_moment: 3.420
 S           1.26423000874643    0.23034569422361    1.26424410397169
O           1.58656909381185   -0.19120395266864   -0.18670126885789
O           1.96464241068903   -0.66051154025535    2.12723008690388
O           1.49801427976897    1.64030018647509    1.42570329365305
O          -0.25983694987314    0.03498348459408    1.38838987869080
O          -1.75909805017120   -0.29174398965946   -1.71017713863946
H          -2.49873339828806   -0.44409380786803   -2.29968275906216
O          -0.20506536388110    3.04873612808754    0.05044386646614
H           0.42029515110202    2.55606017788025    0.64133400716338
H           0.03036696678327    3.97450409026715    0.13071418596344
O          -2.39457062626502    1.37647215148875    0.23649781127912
H          -2.00527429010849    0.88861557670791    0.97336887612400
H          -1.80827580184737    2.14233582407404    0.12202932306758
H          -2.09532244981523    0.30374648981000   -0.98784177484444
O           0.44568849981561    1.28369692573394   -1.89697887437207
H           1.19423061608441    0.43757923302772   -0.89448144793800
H          -0.34711393837834    0.72864852980121   -2.02773699503696
H           0.16628272838085    2.04906322996138   -1.35819714723006
O          -0.89320365233646   -2.06937552828704    0.25265005818344
H           0.00514777170277   -2.52341529276573    0.22830878797753
H          -0.55175228257699   -0.90433714390387    0.98227292126534
H          -1.08169650907474   -1.69127025958919   -0.62290744813083
N           1.56373010774996   -2.96582859764244    0.47618330266566
H           2.14723955080436   -2.81245126773046   -0.33674864962961
H           1.78401034097328   -3.87821362884539    0.85573798861037
H           1.82949579620249   -2.26264269292462    1.16634501175044
