    26
        -50.45812145  Gyration_radius:  2.42452375659 Dipole_moment: 3.419
 S           1.11498657626184    1.39226308042390    0.25988060185060
O          -0.05444729647371    1.05584570789497    1.21176996585734
O           2.27240264061076    1.58690750998158    1.06698346182694
O           1.26197071352521    0.13666969771572   -0.62217311840007
O           0.73072626021533    2.45746813258114   -0.62689982824670
O          -1.51722767252240   -1.90892336877259   -0.39699423338088
H          -2.02341582118495   -2.70066204176731   -0.58335317219912
O          -1.12687783928781    1.69206943656917   -2.28180993130067
H          -0.37495942956777    2.00738222308617   -1.71769956210725
H          -1.40005560473542    2.44825922638868   -2.80379643960542
O          -2.23102456657494    0.68526594459376   -0.02397944742095
H          -0.95999102169302    0.97476941678594    0.73873413444708
H          -2.03456158753270    1.05483963613115   -0.90657627897262
H          -2.16181050609237   -0.28549385707309   -0.10482740436896
O          -0.37630808824672   -0.94870033081548   -2.57701562141625
H           0.50193259443421   -0.77802077798910   -2.21358350003530
H          -1.08775361056584   -1.64351154977270   -1.25403151381410
H          -0.75867704394505   -0.06440496443830   -2.70044570888118
O           1.00038560139566   -1.87325625036947    0.79579054897466
H           1.23808900650816   -0.74493100448026   -0.02628495338580
H           1.17723627794352   -1.46504395797310    1.69908551395439
H           0.04179982731432   -1.98765651974930    0.68118957319749
N           1.61966535342798   -0.48342414294111    2.93455160044303
H           0.82695248522028   -0.12875796545641    3.45490245667034
H           1.99520830118797    0.30017185756335    2.39945355618537
H           2.32575443037606   -0.77912512811767    3.59712930012367
