    26
        -50.45812143  Gyration_radius:  2.42456188963 Dipole_moment: 3.420
 S           1.44449064863821    0.48105517417129    0.96544606337434
O           1.58145423488439    1.91142666126911    0.90214066684355
O           0.08622911948404    0.11254890837096    1.60268735869443
O           1.32369007509935    0.00041068534863   -0.49425945042476
O           2.44877705335173   -0.25058590413935    1.66188354952301
O          -1.96312269495978   -0.64037209610879   -1.35616731602064
H          -2.65969765428999   -0.93742038815437   -1.94296789043342
O          -0.11529634020905    2.95407410504309   -0.77405361777277
H           0.59143987914528    2.59607262831174   -0.17789670536243
H          -0.03722848755787    3.90855794108369   -0.73176077242932
O          -1.85070832130589    1.32461017878206    0.51591413528351
H          -1.39876629335244    2.02838302423433    0.01131232271036
H          -2.08673383245717    0.62721852963006   -0.12568309263674
H          -0.70298599988251    0.64748868787262    1.22680302512851
O          -0.22194541853112    0.89721968078113   -2.61335628034942
H           0.58951311767472    0.50064916897521   -2.27161071042567
H          -1.33267645499867   -0.11201113891990   -1.91547225358276
H          -0.27070918514769    1.75954199690201   -2.16904062878454
O           0.19100022989144   -2.19862945479216   -0.52314423223603
H           0.33487638331828   -2.47371701309932    0.43466829353992
H          -0.71917732067990   -1.87306452264518   -0.62654119338487
H           0.91595342143803   -0.98170950560710   -0.53312261207841
N           0.85498276016224   -2.60843170300519    1.98313941281101
H           1.54887709469051   -1.86021599720935    1.99215870978812
H           1.30431746461099   -3.45793619329870    2.30169084088178
H           0.14344650098678   -2.35516343379153    2.65723233734266
