    26
        -50.45300983  Gyration_radius:  2.43482641365 Dipole_moment: 5.195
 S           1.85895168341191    0.77255381471712    0.57984760229748
O           2.20948732017134   -0.18994092110202   -0.56638632085880
O           0.96429559076186   -0.05981007860571    1.52617545917522
O           3.03202696885980    1.18372181641225    1.25449425580794
O           1.03667081111601    1.83920658866708    0.02855860694881
O          -1.40333736055511   -0.24105291883807   -1.83682698766300
H          -2.14633082625140   -0.13029660808689   -2.43118220502294
O          -1.26189492492004    2.82215409432175    0.98018022891278
H          -1.08153919403467    3.33880504822228    1.76685093310861
H          -0.39625481594774    2.64633580329858    0.56257277474347
O          -1.47381793862169    0.16559914552517    0.85132517755209
H          -1.53510704647055    0.01255339262929   -0.11300507355168
H          -0.02068192262809    0.01668552399206    1.25082726767852
H          -1.60396017773072    1.13171192868651    0.96878986081553
O           0.63482196914347    1.25958927172403   -2.51524545354444
H           0.79956053607236    1.63699612053528   -1.62555266115233
H           1.40787514147935    0.72247372448911   -2.70799441412849
H          -0.68630986961219    0.36747621825898   -2.16350471862831
O           0.49201436045785   -1.98414657041835   -0.89022511659690
H           0.16426749154295   -2.30031140347145   -0.00302796213423
H          -0.26268021540084   -1.54414246076259   -1.31538195428331
H           1.51427650156988   -0.95716391291776   -0.68846931574823
N          -0.47429543843998   -2.63377785851760    1.51701606188405
H          -1.27709607767913   -2.02332903269276    1.61753496172005
H           0.24558643820528   -2.28696655377611    2.13948550554191
H          -0.73652899450050   -3.56492416228353    1.81314349712528
