    26
        -50.47249780  Gyration_radius:  2.40816534173 Dipole_moment: 3.017
 S          -0.43751849902506   -0.23437549744281   -1.32011574530385
O          -1.28313607573954   -0.97068513094323   -2.40023548851793
O          -1.13983814893901    0.98441128010245   -0.98981805137123
O          -0.31002272891757   -1.12956477826286   -0.16884456809548
O           0.89436612309189    0.02445056557800   -1.87783263326566
O           1.73121578160250   -1.14400575270661    1.55471502652189
H           1.01999923367397   -1.32442643636764    0.90532227752903
H           1.26490634721282   -0.95755345438853    2.37577095005675
O           0.03904658618239    2.31755116274396    1.04057749003753
H          -0.49063174917192    2.15458667057033    0.23970423788606
H           1.38043336777607    1.72614898262520    0.57784160117238
O          -3.21406498385408    0.67419503192448    0.72334715143206
H          -2.52239945913919    0.79530171866899    0.04684690837542
H          -4.05106884420270    0.80618034439667    0.27722518790358
O           0.77014671767011   -2.61839930463409   -2.31398833430898
H           1.17871194926209   -1.73738168595489   -2.29719593304226
H           0.65459040506379   -2.87125291455662   -1.39288243856548
H          -0.73616345661505   -1.75564006431743   -2.60442733441939
O          -0.93677081231864    0.10713611950387    2.16934592709322
H          -0.30342161412364    1.64150892421072    1.67297958553120
H          -1.88099548425268    0.30952379987593    2.14771232731689
H          -0.79986807411363   -0.41051561201427    1.35340595546757
N           2.14887282384913    1.08341586297711    0.17162396556670
H           3.03765633903179    1.55727701033428    0.05539149218123
H           1.76862555936225    0.72996499517250   -0.74869226595306
H           2.21732868662462    0.24214817290375    0.80222272879217
