    26
        -50.45812146  Gyration_radius:  2.42458389292 Dipole_moment: 3.420
 S           1.39687009558375    0.52040188349428    1.01382831243402
O           1.35225949237629   -0.26666721699834   -0.31087824474762
O           2.21507488833363   -0.14200087687448    1.97332114051007
O           1.73995422394404    1.87190400756147    0.66103764075207
O          -0.05538138279948    0.46852551662465    1.53826662381757
O          -1.89206332385626   -0.70446121594921   -1.42363000032917
H          -2.56294930011953   -1.04636108446910   -2.01592684971679
O           0.37884174790846    2.68896472634956   -1.40181777080039
H           0.58675517456480    3.61167536310343   -1.55768320054914
H           0.96638942985851    2.39890201401225   -0.65773258905638
O          -1.68670147759202    1.61266794062487   -0.02114084949308
H          -1.09304339209507    2.12405985778527   -0.60438210403272
H          -1.95507725160758    0.81816109741165   -0.52161095439199
H          -0.72080776818646    0.98976291482246    0.95875720775813
O           0.16282650333681    0.29003422578126   -2.75205165964227
H          -1.14183796523681   -0.39580431121495   -1.99924757582059
H           0.19318777718297    1.23117695382803   -2.51384291339188
H           0.87304278659254   -0.10833008844993   -2.23301230810672
O          -0.07132917733411   -2.26684541110461   -0.00735851279660
H          -0.91195894669590   -1.87088041022566   -0.29318794240618
H           0.81564280063073   -1.17729504725015   -0.18807989568244
H          -0.06182770380694   -2.32834780424160    0.99758956610357
N           0.28073767604748   -2.16174716755857    2.59176572765982
H           1.06887882208138   -1.51675999079050    2.52679794175836
H           0.57275170267567   -2.96101404343401    3.14033349656378
H          -0.45023543178713   -1.67972182284032    3.09988570360454
