    26
        -50.45812142  Gyration_radius:  2.42453043607 Dipole_moment: 3.421
 S           1.47417764970158    0.89022387460254    0.53238751778761
O           0.20661125463322    0.75452303970786    1.40512977479418
O           2.58794881795162    0.54618349905052    1.35097795471083
O           1.27528365109475   -0.14491313434646   -0.59246433039014
O           1.48823748859965    2.17686062728617   -0.11027313558094
O          -2.00799111475433   -1.21610180584904   -0.76990447280065
H          -2.72266137409081   -1.75491238937750   -1.11155100875319
O          -0.41897414973793    2.38101294116075   -1.86989096999768
H           0.36078658411406    2.32463143868098   -1.26017353719477
H          -0.41611093677774    3.27346800536534   -2.21977435770095
O          -1.90481928354245    1.34101513619777    0.14045098858796
H          -2.13455247325485    0.43447052828465   -0.14079260895614
H          -0.65166164286493    1.05810957008685    0.93437721007763
H          -1.55449424932037    1.79888473413256   -0.64809985254839
O          -0.50565484013534   -0.24674745624084   -2.71398676587296
H          -1.47011162507773   -0.93317975856392   -1.55735953398087
H          -0.58889208370548    0.71869480284219   -2.64808310945828
H           0.36034704520533   -0.43623945481293   -2.33097630559249
O           0.32619945474914   -2.21197581435988    0.37981962519577
H           0.94666803899084   -1.07484439762211   -0.19240758796704
H           0.56956292461280   -2.06930230202654    1.34641863334580
H          -0.61280248936870   -1.99426140260294    0.25328712464464
N           1.22365235188819   -1.54431810642447    2.75430659176605
H           1.76555761545052   -2.17303698376450    3.33400789263827
H           0.55143565368116   -1.07050917402811    3.34466408372219
H           1.85225774195795   -0.82773601737601    2.38991017952527
