    26
        -50.46147054  Gyration_radius:  2.59178184554 Dipole_moment: 4.223
 S           0.52145007929739    0.21982344288006   -0.48612262291548
O           0.33867406002417   -0.26168465187386    0.87593330147189
O          -0.91721578667115    0.32114828037441   -1.11394961101786
O           0.99130755402010    1.61603811482877   -0.46697855817703
O           1.32907029179070   -0.64743225787852   -1.30949553499727
O           1.81476898712598    2.42635073124264    1.97394262443944
H           2.57604704087374    1.91646502921436    2.25482318555538
H           1.64349215160036    2.16515140963852    1.04706506353601
O           1.05225285864214   -2.79033195753920    0.27620548029819
H           1.43248649783656   -2.22624236201417   -0.41782577150004
H           0.70821573428401   -2.13566280652811    0.90100440946195
O          -1.03828459472401   -3.68719655426560   -1.11164637885954
H          -0.29633902058690   -3.43596912229425   -0.51003885191759
H          -0.85394012416384   -4.58089799514674   -1.40441028247773
O          -0.64447950840438    1.50609497548799    2.54672332014151
H          -1.14397721397396    2.23323027510381    1.34269812793674
H          -0.37937867495391    0.68274095087746    2.07253898613756
H           0.21347527771273    1.95720993615821    2.68514524690674
O          -0.72656502325053   -1.60318910465659   -2.75754979606618
H          -0.97907957873307   -0.42077191927630   -1.80052808434717
H           0.22808212116120   -1.49176559931262   -2.63137586572834
H          -0.97199673525302   -2.40421597041515   -2.23787315483989
N          -1.24235278222371    2.61264648250997    0.31324042514169
H          -0.28891214554574    2.35085689345747   -0.11446026732789
H          -1.43016944352339    3.60904245567830    0.26959728868148
H          -1.93663202235220    2.06856132374091   -0.19666266953762
