    26
        -50.45812143  Gyration_radius:  2.42453288002 Dipole_moment: 3.421
 S           1.25790053714541    0.52369657665967    1.18035066996477
O           2.20270980098673   -0.17596111388159    1.98453765146513
O          -0.14755216608072    0.03977179953609    1.60142446802502
O           1.30280404198698    1.96124376889659    1.19319542859191
O           1.37695985342465    0.10765934403782   -0.29917058991938
O          -1.70376630500492   -0.69642491204781   -1.64778691893522
H          -2.28857211463011   -1.00810748879980   -2.33963126954158
O          -0.21029728435211    2.97508752396732   -0.66640894617585
H          -0.20525596519232    3.92943906554149   -0.57633514339450
H           0.42881845948551    2.63391505744555    0.01046131292532
O          -1.99224344795119    1.17833689634214    0.29655251713325
H          -1.52396886751797    1.93295744014964   -0.11017196733726
H          -2.08679652265068    0.49937004533995   -0.39897942383511
H          -0.91140983773716    0.54140055721139    1.13755227239479
O           0.08570993682534    1.00745669966061   -2.58097405477362
H           0.86656808719349    0.64680655059868   -2.14197631131330
H          -1.03919820318960   -0.10275261960670   -2.08973786737494
H          -0.08492462832263    1.84232987535398   -2.11484761515906
O           0.41446856945600   -2.15430039894360   -0.57569288741006
H          -0.49246725737461   -1.88204025916088   -0.79582312526205
H           1.04763727064320   -0.89518954392045   -0.43434574382871
H           0.44105717267738   -2.46575160847939    0.38143995029637
N           0.74669582075585   -2.64225970941017    1.98198299312848
H           1.20445316310071   -3.47625741270746    2.32828996821534
H          -0.06827186587750   -2.46729615878179    2.55651559193574
H           1.37894176220066   -1.85312997500809    2.11957906018652
