    26
        -50.45300959  Gyration_radius:  2.43480411201 Dipole_moment: 5.197
 S           0.46898754726968    0.48514168346131    1.98303794072257
O           1.53211758102216    0.41586431335887    0.86335092334535
O          -0.08319326451622   -0.94611545634178    2.08068732217759
O           1.07163235579708    0.86529424927525    3.20473782690748
O          -0.60613354492135    1.34495650534505    1.51111079990213
O          -1.74653642649024   -0.70959728566537   -1.35948565547219
H          -2.43602568178569   -0.70425597174993   -2.02434067392288
O          -0.53637276905425    3.16679236204450   -0.44640873748116
H          -0.69894681400677    2.62058848038285    0.34727479527414
H          -0.03121807406486    3.92594687577029   -0.15188320235843
O          -2.68214055159713   -0.21510625613748    1.03758752350204
H          -2.50432980140819   -0.94743985444416    1.63368488600746
H          -2.02723764506642    0.47456493551691    1.27549912040688
H          -2.18877598133054   -0.50690042324058   -0.49081571976691
O           0.45966413488551    0.87903112475796   -1.39138972282254
H           1.10258530197429    0.58884959176824   -0.05192225187343
H          -0.34187902880606    0.32268272054209   -1.46454594039845
H           0.12853049888373    1.79227306485304   -1.24845574281420
O           0.13654387447242   -2.22539212444778   -0.06158361809346
H          -0.54678502661185   -1.86244387144002   -0.64906447458127
H           1.01166140069732   -2.01424867641692   -0.49051925577884
H           0.03129243889226   -1.49477791268967    1.20168672077969
N           2.41078939065314   -1.45595705321123   -1.23895857167615
H           3.03665548352793   -2.05876816563980   -1.75714710470545
H           2.92283577376926   -1.04329005131798   -0.46852599739745
H           2.11627883781431   -0.69769284433271   -1.84361118988561
