    26
        -50.45812146  Gyration_radius:  2.42458267551 Dipole_moment: 3.419
 S           0.51943948922599    0.85854236877099    1.49742185169164
O          -0.07650177577883    1.05025381716618    2.77691242204527
O           0.68644181143542   -0.66386970587206    1.29456887814602
O          -0.44067011048686    1.29022013122390    0.37130753584578
O           1.76625088123503    1.52519347948671    1.23319385339593
O          -0.71098956082748   -1.14018545210746   -2.07320748300879
H          -1.06604043557942   -1.51940902773824   -2.87814490465573
O           2.41068850244618    1.37103814321810   -1.28391771347917
H           2.17348547611614    1.51236639140104   -0.33162840997896
H           3.27665881718388    1.76507131188428   -1.40117374535564
O          -2.22650713426053   -0.40664390475757    0.14674672634842
H          -1.26720391430031    0.62277909027201    0.30691287624093
H          -1.79471266301249   -0.95942949475894   -0.52635729971188
H          -2.14426764939434   -0.85620889292180    1.04390878349466
O          -0.12328641471921    1.41664048878553   -2.37961696479780
H          -0.56291325243117   -0.17461616207470   -2.26062930231569
H          -0.51156359255063    1.75020808712302   -1.56080379534494
H           0.83460165866289    1.48089246358920   -2.23209593629732
O           1.75133856470009   -1.23095960036048   -0.92951047954460
H           0.92391076039760   -1.36568989869413   -1.43039730015873
H           2.11321154969901   -0.36894307359028   -1.21256151169977
H           1.18262212966035   -0.91201439600923    0.43289682798935
N          -1.78609129423688   -1.24016957862011    2.59649248156434
H          -1.23807325125184   -0.41743524284945    2.84985645698311
H          -1.16643441682621   -2.03746897823092    2.66829557284956
H          -2.52339416510845   -1.35016236433177    3.28153057975877
