    26
        -50.45812140  Gyration_radius:  2.42449803855 Dipole_moment: 3.420
 S          -0.09970857113315    1.19031167317237    1.34992526526356
O          -0.38924633779507    1.07769660615466    2.74003223575863
O           1.03040378435505    0.22473820442029    0.94147041470833
O          -1.33786510803871    0.67596958069572    0.58227905094015
O           0.28234044019282    2.48317389175906    0.84860130236941
O           0.17730937005433   -1.62140420437556   -1.85515876306017
H           0.31975502592510   -2.29585312953711   -2.52045984326967
O           1.17013787269936    2.33064070482348   -1.59348251932894
H           0.90331722693385    2.42723545302316   -0.64348985577492
H           1.34501749466242    3.21846265935450   -1.90986298873426
O           0.13518798614559   -2.08067158401093    0.89231510343632
H          -0.12558612235882   -2.09733616581956   -0.04409706506677
H           0.69761667931869   -0.78482543136662    0.99295129667802
H          -0.68647239625000   -1.95348323542666    1.46028706921645
O           2.34596025221939   -0.16457766374785   -1.46706431964821
H           1.04810836663858   -1.15486481292900   -1.73899512012636
H           2.09597334013972    0.74136696908962   -1.71233928936693
H           2.34080124380172   -0.15814324496130   -0.50141156910823
O          -1.04160615115450    0.80506838904011   -1.92719788749173
H          -0.71776803370764   -0.10678225863398   -2.05888313620826
H          -1.26788708192011    0.78815119788790   -0.43399542405998
H          -0.26664304002345    1.39319138119440   -2.01503141886914
N          -1.82708360129472   -1.38657270107349    2.49149869820262
H          -1.38268187612765   -0.51019437292605    2.76698490357330
H          -2.05933611848927   -1.89964196400865    3.33280954172354
H          -2.69004466479478   -1.14165594179827    2.02231430824158
