    26
        -50.45763563  Gyration_radius:  2.42184751499 Dipole_moment: 7.920
 S          -1.83769483817374   -0.31178667652554    1.00485378114253
O          -0.72333887540792   -0.26473063163620    1.99362111137263
O          -3.07346194205085   -0.74486186590004    1.55255307006833
O          -2.01076056763743    1.16473648743028    0.50339410575645
O          -1.36647036804516   -1.08586158342875   -0.15312808741919
O           0.81583893660043    0.53665830957809   -2.46253255560588
H           1.09434447045161    0.85375369107883   -3.32234586308266
O           1.48598507547051    1.16344744873564    2.19606126227993
H           0.59695523988228    0.74474873253342    2.26660895284625
H           1.50090223744007    1.87013151883196    2.84277310506508
O           0.87790665427309   -1.91396057616476   -1.27008820200900
H           1.29914600482771   -1.71302364709478    0.18169039208875
H          -0.06890545522527   -1.84019588614121   -1.03019179748801
H           1.04616985805590   -1.11045250248337   -1.79682136171312
O           0.37618179767912    1.98652967065782   -0.16956006567184
H           0.96485832937628    1.75649215066529    0.56966233738075
H           0.68538467601255    1.50482294887955   -0.95625027837215
H          -1.10948497092824    1.49962615391967    0.25689863557938
O          -1.79291025961087    0.36397217667105   -2.27730491073022
H          -2.23141471968966    1.14479378965958   -1.92955129520264
H          -0.18065410845115    0.48169150661847   -2.49366448647140
H          -1.76203647009583   -0.26623826329703   -1.51797929973786
N           1.37213861667258   -1.52404362951368    1.24499630399777
H           0.41097820218426   -1.10354476954528    1.55287931188081
H           2.07027048041460   -0.81196265173203    1.45900226820970
H           1.56007198597714   -2.38074193180110    1.75442356583273
