    26
        -50.45763560  Gyration_radius:  2.42183015012 Dipole_moment: 7.920
 S           1.98101176727200    0.37147797636550    0.64927494336137
O           1.01515048823323    1.03274252395455    1.57200360849680
O           1.43573449007190   -0.95292948669130    0.31652354536209
O           1.93136700222394    1.21092456395644   -0.67528291622676
O           3.31838366476722    0.36682904726669    1.12470173135849
O          -1.19853181006450   -1.11244510979783   -2.08402115879957
H          -1.62402388545669   -1.40007217585031   -2.89247103960481
O          -1.27920398081194    2.28948463263110    1.22745974589473
H          -0.35086491111621    2.00069886990915    1.38693405500443
H          -1.27689608431526    3.24535686116161    1.29203294428596
O           1.41466448536110   -1.14895186986897   -2.28293643911236
H           1.81480279231125   -0.32462777232043   -2.57152653038391
H           1.55340563736070   -1.16720893927949   -1.30564039065827
H          -0.21553517678821   -1.18128870331261   -2.24513839613539
O          -0.59696684466478    1.44874749092387   -1.28914455582847
H          -1.05118158787189    1.73425384780949   -0.47792658347136
H           0.97526393313179    1.32461054741438   -0.91640424767597
H          -0.96106262314292    0.58343655539355   -1.54446264115145
O          -0.84492123026027   -2.28231482991828    0.35261307864021
H          -1.07992565628282   -1.21627655534048    1.41739418919550
H          -1.16527141029263   -1.98212474059293   -0.51839236970391
H           0.11345933336704   -2.08130337331344    0.32933940094448
N          -1.02429593453159   -0.40444452637034    2.13120820911590
H          -1.05173723777453   -0.75451399671235    3.08276183066894
H          -1.75510027604527    0.29007411221390    1.97690742561917
H          -0.07772495467986    0.10986507036472    1.94419256080320
