    26
        -50.45763560  Gyration_radius:  2.4218191982 Dipole_moment: 7.920
 S           1.68720243116582    1.19821655715390    0.44884853068961
O           1.64918411665572    1.29845539016205   -1.11643689733118
O           1.55566094667434   -0.23021181543070    0.77196740225252
O           2.88441984268415    1.80835511549855    0.90603741899399
O           0.44649658125686    1.87796387369363    0.91809066502756
O          -0.51600103994491   -2.22895358290297   -1.33518847709387
H          -0.71480354167772   -2.96025027382798   -1.92089628643111
O          -1.99970298539713    2.09365291636732   -0.04715377934389
H          -2.24864132799393    2.92858393316755   -0.44564149284215
H          -1.06852237713478    2.20044454127483    0.25639608849941
O          -0.71899102653504    0.46500746047389   -1.83955923619796
H          -1.35889110078506    0.93181005283936   -1.27517565501347
H           0.74917620525285    0.99924164658568   -1.40911294509622
H          -0.80593062134606   -0.48757710565074   -1.66193801890580
O           2.01780710479148   -1.56383182171777   -1.41980993845457
H           0.46536750976774   -2.06380180238813   -1.41656783246285
H           2.24007365297556   -0.87812179444182   -2.05487608331912
H           1.99194397634056   -1.10063875480218   -0.54832806813240
O          -0.29035182310532   -2.01921910889343    1.37334732580250
H          -0.95964912866560   -0.71542970886686    1.79488067648615
H          -0.52628686459352   -2.25192816803240    0.45598369171952
H           0.57672602730752   -1.57246353305338    1.28381001722288
N          -1.22956685316672    0.30443296342463    2.03717320981401
H          -1.32611939947315    0.42659740652705    3.03942689667503
H          -2.07531199458626    0.60121490870606    1.55047127479622
H          -0.42528834046410    0.93845069413729    1.65425153264439
