    26
        -50.45300974  Gyration_radius:  2.43484282689 Dipole_moment: 5.196
 S           1.74075112761645    0.77019178786019    0.87440969442324
O           1.14928474150833    1.77077864864064   -0.00127801150843
O           0.59524208329575    0.14237581682775    1.70050667659646
O           2.25623370644801   -0.37898885121932   -0.00690783144461
O           2.76588610999394    1.23047082255691    1.73326564217003
O          -0.97733751794744   -0.46760877088304   -2.05620056522275
H          -1.55967531289325   -0.41939972939388   -2.81524957905573
O          -1.21606713964015    2.99697048875395    0.23959892274144
H          -0.29652754387059    2.71754600093063    0.06341879725408
H          -1.17289418696427    3.62476432022558    0.96227813200957
O          -1.60658779497815    0.36627658684202    0.45463293835245
H          -1.68154436987057    1.34355637592316    0.39662168472749
H          -1.46532259403895    0.06364478962168   -0.46495397389384
H          -0.29480491873291    0.21775060518474    1.19661086069055
O           1.27497439067254    0.81031258005723   -2.45678932163031
H           2.02556101120720    0.21468836086616   -2.38541856583463
H          -0.15903319012662    0.04732695930503   -2.29362774505190
H           1.26869685109727    1.31731940240340   -1.61771856855836
O           0.51363843109482   -2.12183024145192   -0.45413947375989
H          -0.09025253406566   -1.72167846730334   -1.10150269607418
H           1.54537385550028   -1.12314210480748   -0.17352377250336
H          -0.02616691739276   -2.27637180990156    0.36994817925036
N          -1.00800107986169   -2.33229892677513    1.73466312655406
H          -1.40210839624834   -3.19146039915870    2.09536249427524
H          -1.76203979170257   -1.67856386426948    1.55777210937443
H          -0.41727901009766   -1.92263038083927    2.44822084611628
