    26
        -50.45763560  Gyration_radius:  2.42183370929 Dipole_moment: 7.920
 S          -0.15114983604600   -0.48029050870299   -2.05680944930070
O          -0.49588173062909   -0.86269457176350   -3.37951320158620
O          -1.11830155244498   -0.87856957820683   -1.02331894730464
O           1.20388103798488   -1.17548252086553   -1.67973309109542
O           0.09687022283900    0.98067321576023   -1.89660134441908
O           0.08484093495006   -1.29496795098458    2.30931673190852
H           0.24127512200628   -1.77053463166616    3.12586183291533
O           1.57481219748735    2.41715793231045   -0.24907277629491
H           1.16166116047524    1.92549174604068   -0.99621226573297
H           2.38928080480581    2.78824642716972   -0.59084079489925
O          -2.10108447443068   -0.03507360803341    1.27725448540372
H          -1.40622041042498   -0.41771884523787    1.84482493740634
H          -1.62753195617787    1.26515509315364    0.63653945923269
H          -2.00027611571908   -0.51664038672038    0.43027372868766
O          -0.09437907063310   -2.90875403503947    0.25182864726571
H          -0.57249774256074   -2.24919657237060   -0.30590965013523
H           0.72995452870674   -3.07132969331483   -0.21395315123837
H           0.00841030875268   -1.98624396597297    1.59288549788116
O           1.92693498704269   -0.15846205387580    0.61564413563380
H           1.84762444583662    0.80671349176089    0.52592543785462
H           1.31318388227198   -0.44311827995124    1.31478241751286
H           1.50241352330941   -0.78968963272250   -0.81530703950737
N          -1.24366196349906    2.05139683260113   -0.00079289100941
H          -0.49254091734466    2.57461077399856    0.44898933010898
H          -1.98787474117759    2.67140739808633   -0.30160631990377
H          -0.78974262537949    1.55791392454651   -0.86445571938114
