    26
        -50.45763560  Gyration_radius:  2.42183183628 Dipole_moment: 7.920
 S           1.91923292408179   -0.72184082317118   -0.52864734112152
O           1.96411518174601   -0.85149675318445    1.03428412029846
O           1.83765911929446    0.74127712334017   -0.80108936760567
O           3.07985736637260   -1.34141775708003   -1.06127645915886
O           0.64525058711941   -1.32049601017967   -0.95372824880373
O          -2.17696509078280   -0.92517162833036    1.19246723244543
H          -2.90899654116211   -1.22429879188511    1.73286770036230
O           0.70271300349249    2.77438338781290    0.44008585907155
H           1.29370588386764    2.09130114553163    0.04667311415240
H           1.27094568875320    3.36876630630060    0.93170692680112
O          -0.01343349375331    0.59619793880837    1.93946661951341
H           0.04692542793571    1.45624151477978    1.48937205622415
H          -0.86316309202061    0.19129074806565    1.69344693187706
H           1.22718899607288   -0.29448749735576    1.39742785993704
O          -0.26347106311920   -2.71107180823235    1.05540006169153
H           0.12537563982181   -2.32591393718252    0.23373377576674
H           0.42700096052447   -2.62288209792472    1.71750244541848
H          -1.51462868920027   -1.67225195038738    1.17983586360004
O          -1.84508488549465   -0.63300318521028   -1.49737527209860
H          -2.17924833866526   -0.68341964443384   -0.58239925870827
H          -1.09464367485067    0.67341494209602   -1.73289810061513
H          -1.00569447723618   -1.13687466549799   -1.46602189254886
N          -0.37325900807054    1.47068488290076   -1.85814658684408
H           0.58726305451426    1.07800472284144   -1.51364965467815
H          -0.57977642780463    2.26975614349002   -1.25891777870431
H          -0.30886904143735    1.75330769408779   -2.83012060627279
