    26
        -50.45763563  Gyration_radius:  2.42185468817 Dipole_moment: 7.920
 S           1.62225971860684    0.48727347988073    1.27082663336018
O           0.82960186282313    1.71346125786215    0.97113850437391
O           0.66870067823486   -0.60812728707879    1.50107969710376
O           2.37265721168997    0.14141917261859   -0.06289918609144
O           2.58969436817731    0.66473799795219    2.29416258823186
O          -0.86058568512164   -2.10994064553338   -1.35103070950826
H          -1.09577681825288   -2.83250550952397   -1.93411001112449
O          -0.40924340239305    2.61342682708745   -1.17756968561208
H           0.18549849187715    2.41649502484153   -0.41720213146327
H           0.00695221136892    3.32529289687184   -1.66531272987485
O          -1.85141515288292   -1.24315182253677    1.03609018433831
H          -0.95222901476357   -1.23120408654401    1.42440603944044
H          -1.89383571647185    0.28063291671867    0.99516701902700
H          -1.71306683338710   -1.61261689169126    0.14404706862262
O           0.55894251553114    0.16769164010053   -1.94317033424758
H          -0.05910213758308   -0.57366500929531   -1.82098979894980
H           0.05774774339643    0.99351673911129   -1.83038607492620
H           1.70035626076243    0.16164608612349   -0.79284317724450
O           1.36740995100831   -2.58084295447647   -0.05333432644780
H          -0.02084189739316   -2.38656917201169   -0.88703418671690
H           2.16554922438887   -2.25706552273288   -0.47882490132651
H           1.17223045285542   -1.91851624659072    0.65230239094538
N          -1.69989989555448    1.34504787895901    1.02825059153998
H          -2.17662974338548    1.77725261696976    1.81227410884860
H          -1.94725382609322    1.80541397212012    0.15238892452526
H          -0.61772057744136    1.46089666079420    1.13257352317312
