    26
        -50.45300980  Gyration_radius:  2.4348734246 Dipole_moment: 5.196
 S           1.88922930313218    0.53497887276950    0.72972859202975
O           1.43437933198024    1.53217471693522   -0.22762585725673
O           0.69635977413391    0.20294906953817    1.65471709798551
O           2.15502852794900   -0.76838103448189   -0.04078751699906
O           3.02006979565253    0.89086823130463    1.50103874855321
O          -1.14638026567116   -0.48995441109894   -1.96152035921193
H          -1.74945280675886   -0.41642589761150   -2.70208864397297
O          -0.66991087177694    3.17325618107291   -0.03931955445267
H           0.17772253135069    2.72036096761763   -0.21547235052975
H          -0.48273455943192    3.85121667071818    0.61151859239757
O          -1.49521479358136    0.68650110485286    0.46552193113561
H          -1.40420783495598    1.65112867480445    0.30674240504548
H          -1.45484539608568    0.27443252395236   -0.42087503506692
H          -0.19203518026593    0.38365200851938    1.17539744716787
O           1.26819523458675    0.32617763313942   -2.56981393217449
H           1.90822634660605   -0.38207212896178   -2.46024045258621
H          -0.26514787148681   -0.15283748573373   -2.27920093493958
H           1.39169692285907    0.90697324027359   -1.78970550367431
O           0.11902889079137   -2.21326696365745   -0.24250497247355
H          -0.43951943863739   -1.77914912839236   -0.90844157160607
H           1.31964466040844   -1.38890072407947   -0.10374581029621
H          -0.39674890415470   -2.18831565399302    0.61060766141131
N          -1.30376074465745   -1.93560089090916    2.00446310468562
H          -0.61639661602952   -1.56798023072399    2.65125288874893
H          -1.82120805472418   -2.67189312709399    2.46672595512619
H          -1.94201797122961   -1.17989222876207    1.78362807095728
