    26
        -50.45763563  Gyration_radius:  2.42185525903 Dipole_moment: 7.920
 S           0.66512722699134    1.90314639186549    0.64791224491563
O           0.68904519557482    2.08572251239117   -0.91017247893905
O           1.34945159731240    0.63095221217608    0.92253579686105
O           1.26359600021152    3.04568986818502    1.24042406537373
O          -0.77141469510965    1.72277910189045    1.00213140678207
O           0.94450957399839   -2.01837866308873   -1.43239263834052
H           1.24078291936594   -2.68571713436396   -2.05229537333341
O          -2.82703958063419    0.59174806269918   -0.20484416279912
H          -3.47829554138460    1.16772215065594   -0.60731758888104
H          -2.14757357605264    1.18225587763508    0.19551650925518
O          -0.72162928208380    0.11832925732863   -1.89252580838258
H          -0.26231902774740   -0.72684738243582   -1.74682808049505
H          -1.55199126425743    0.09585036614282   -1.38666335014811
H           0.14409754590674    1.35386283008777   -1.30084818868498
O           2.64461720662054   -0.03281375598084   -1.24031894438121
H           1.65920434838973   -1.32151298761318   -1.40841205111834
H           2.48109328999542    0.70528390180836   -1.83308513809683
H           2.29700211254099    0.26529643283897   -0.36568260765756
O           0.81570574803955   -1.92858103954748    1.28913889154600
H           1.27671704451089   -1.06438947024860    1.29948728877302
H          -0.50579354479051   -1.26963136980401    1.66969927157008
H           0.82090757130039   -2.18206444907120    0.34727606597590
N          -1.32569498304707   -0.60371198859366    1.90633586164853
H          -1.00176873027172    0.40135563212716    1.62291565699165
H          -1.54609128599783   -0.63575153333766    2.89586359428032
H          -2.15224585938107   -0.80059480374704    1.34214975728555
