    26
        -50.45763560  Gyration_radius:  2.42183548787 Dipole_moment: 7.920
 S          -0.94989250014106    1.87891642843625   -0.22664997896812
O           0.42332536102134    2.14327684823577   -0.93796964325898
O          -1.45368802152933    0.60736361424639   -0.76651920608676
O          -0.61419103889927    1.65287621649683    1.20784993908720
O          -1.79115998687487    3.00009167751162   -0.44991870096334
O           0.93171428138626   -1.92176101686536   -1.56710808899860
H           1.37710814763336   -2.55014336123707   -2.13645877282066
O           1.42960749813862    0.54728405361918    2.45798717554983
H           0.74462879687960    1.12911008663327    2.05434721992899
H           2.05944523266757    1.13070341746517    2.88318104637545
O          -1.44328481933419   -1.97765623555919   -0.23029630287155
H          -0.59510360356621   -2.18092394255241   -0.66693894673720
H          -1.21461112507926   -1.36496026153832    1.14729526587299
H          -1.69292432360790   -1.10655771495168   -0.60221040612228
O           2.00916885277526    0.20350411647299   -0.19749951658365
H           1.04481089137346    1.42261460609528   -0.65584592241589
H           1.93115637751050    0.13860544897372    0.76976342166355
H           1.70525366315104   -0.63913587669640   -0.57711921690045
O          -0.07941362230217    0.08325415938499   -2.91888944334949
H          -0.71545517883905    0.32825627552687   -2.20467907324673
H           0.49504636115760    0.84809738273028   -3.00791665450594
H           0.56272243176142   -1.21348035870447   -2.16639836979215
N          -1.08313037010373   -0.72825311445192    2.01276327924164
H          -1.01416946297218    0.29640820873913    1.63751116556230
H          -0.20071800828841   -0.91106225418850    2.49043883267930
H          -1.86624585391918   -0.81642840382381    2.65128090766063
