    26
        -50.45763560  Gyration_radius:  2.42182761009 Dipole_moment: 7.920
 S          -0.44001600007919   -0.55218232047253    1.99635702318581
O          -1.87833715080264   -0.28504642957577    1.42937178128102
O           0.23622800643655   -1.41034639569155    1.01230790253195
O           0.24364411688508    0.77215162390567    1.97805752768929
O          -0.56897941415653   -1.11412541138879    3.29335511339089
O          -0.51770293516133   -0.89979534933493   -2.43710700876457
H          -0.81187186648358   -1.15662225858067   -3.31166992040416
O           0.13339731025392    2.86769185453999    0.37845601730852
H           0.07248102237346    2.19898184427946    1.09939643340048
H          -0.34368835830648    3.63879432970645    0.68774464186009
O          -1.54613639474312    1.04772693485232   -0.79305816769395
H          -1.77250606345170    0.23477216008837    0.59045164752371
H          -0.92704432596077    1.76997407268959   -0.59060776357390
H          -1.12995278130743    0.47919113465618   -1.46393431090549
O           1.82678710378963   -1.23575673978038   -1.08757379578080
H           1.12437754953266   -1.10568030235444   -1.75172127431691
H           2.12787233524388    0.06459220390140   -0.35009244323875
H           1.34860907199602   -1.59297066723671   -0.31092790559017
O          -1.60241933222046   -2.37661326366375   -0.56305862388196
H          -2.41813186316956   -2.03167289393516   -0.19085585416786
H          -0.96035086160725   -1.52600703321411   -1.79764664690478
H          -0.90849344762078   -2.15501917489240    0.10332241918337
N           2.19844454934639    0.89975481829991    0.33489486462739
H           1.42952287048195    0.74335548564684    1.09632761083345
H           1.96834525926316    1.78457022940456   -0.11720839120504
H           3.11592158946859    0.94028153814971    0.76541914361165
