    26
        -50.45763563  Gyration_radius:  2.42184662863 Dipole_moment: 7.920
 S           1.10398396025219    1.65972375593286   -0.71457348538920
O           2.25345113345122    0.73781178273159   -0.17573772793879
O           1.69361725439325    2.75316599491251   -1.40113098602506
O           0.24167111772464    0.80071885917966   -1.53959800098360
O           0.31892668336094    2.05592168412685    0.48890745892484
O          -0.19302987342704   -2.59038523295340   -0.51979633735888
H          -0.16649125211097   -3.54198425315056   -0.62532629796737
O          -0.29735307801770    0.84841919386708    2.75252054959236
H           0.05659739452251    1.40305370380219    2.01918638391193
H           0.17212833938713    1.11851827459914    3.54279140756810
O           1.10011257081007   -1.04368183840174    1.34802827429934
H           0.55266731424697   -1.64004924081900    0.80842681523293
H           1.83485065182507    0.06218925148727    0.41883024052492
H           0.50715599598676   -0.55397298627784    1.94341268989563
O           1.57401682195791   -1.38471957393733   -2.03424319964866
H           2.42624761890527   -1.22426279830648   -1.62089544276812
H           0.49069592792755   -2.22003029186513   -1.14616877358109
H           1.10850208706354   -0.51491569481482   -1.99650853678305
O          -1.94177057243591   -0.67152480137931   -1.35110728814922
H          -2.12414476461804    0.31791137720454   -0.20515929064246
H          -1.20822461362932   -0.14034410481371   -1.72421815121064
H          -1.50337511856447   -1.48631004110516   -1.04236058386254
N          -2.05838294689575    1.11540537664146    0.52377987350112
H          -1.07595276068223    1.57688158177326    0.39213000910840
H          -2.07485427624885    0.76078184749308    1.47992282071145
H          -2.79104563518563    1.80167816407390    0.37888758903746
