    26
        -50.45763561  Gyration_radius:  2.42183531637 Dipole_moment: 7.920
 S           2.01555638104875   -0.42132089944977    0.49396690635503
O           2.12434383088244    1.06757000002299    0.01133292625834
O           1.23139434499750   -1.12826952182456   -0.52947159655514
O           3.32827821454931   -0.92219422842823    0.69522134806789
O           1.19096291411511   -0.37472733753465    1.73471714048625
O          -1.38611282511021    0.66921477749195   -2.15591125633412
H          -1.85806051405399    1.03170034325352   -2.90642014685292
O          -0.82676392403783    1.12426396500076    2.53721298642684
H          -0.64508579597612    1.80332789968004    3.18815617096680
H           0.03087645135127    0.67055200081667    2.36621395342076
O          -1.25826491624832   -1.82528104355005   -1.06412945746153
H          -1.28897709477084   -1.66986768972094    0.45256449878287
H          -1.51662405834240   -0.99462574773043   -1.50532115508297
H          -0.27918764876845   -1.79685645077723   -1.07077475800698
O          -0.31443617331171    2.00455098532053   -0.00606631866402
H           1.20656549186294    1.44555999002099    0.01283580033651
H          -0.83449606242483    1.56809612452574   -0.70289165479071
H          -0.70697389349755    1.76550280928181    0.85105976027560
O           1.17377982257287    0.39259400983093   -2.64598846441053
H           1.72156229163163    1.14147124028417   -2.39692413481129
H           1.30667765572094   -0.26736247276176   -1.92386340322733
H          -0.43352425078319    0.57889787679845   -2.44119749115514
N          -1.08192271282547   -1.52305953229107    1.50484018636152
H          -0.05565206192447   -1.15174710222286    1.57107026724515
H          -1.17450872339403   -2.39281323430798    2.01836227377600
H          -1.66940673326248   -0.79517675173142    1.91140559859590
