    26
        -50.45763560  Gyration_radius:  2.42183654436 Dipole_moment: 7.920
 S           1.08630516169883   -0.91572282534730    1.57018485522717
O           1.85044485227661   -1.28931233214411    2.70647728311959
O           1.65572336728027   -1.67570602037903    0.32128538239440
O          -0.34863010818882   -1.31056889837396    1.65202264144793
O           1.13074392460192    0.51532836716095    1.23517566157903
O           0.52396124371010    1.45042135567873   -2.15384697216426
H           0.72826138152659    1.86376752435101   -2.99335581473970
O          -2.19551398878845   -1.88241929744086   -0.14353864404903
H          -2.42918498911019   -2.80378914972586   -0.26333114120914
H          -1.50546145655055   -1.86274394938653    0.55936899622235
O          -0.39605605808989    2.41671311152936    0.22326028832146
H           0.32417385785894    1.96181256449819    0.70673770219454
H          -0.19415208015722    2.23782485855222   -0.71409349847523
H          -1.42794334452550    1.42905274428561    0.75725800634458
O           2.68845083665416    0.77540168778288   -0.83895358499300
H           3.00075714957722   -0.11936363574284   -0.99634188623296
H           1.40049492252781    1.25174127321493   -1.71885953303541
H           2.22389460311700    0.73021206735773    0.03100786855230
O          -0.00445580017488   -1.19693090782550   -1.63840727288666
H          -0.89662702342708   -1.36772264093600   -1.29087957697620
H           0.04073240897621   -0.25883014148433   -1.89226378410667
H           1.02831476147545   -1.51725871491717   -0.43134387098726
N          -1.97342492073679    0.61519067598820    1.21744161840045
H          -2.48397419795710    0.93520276801658    2.03334225861039
H          -1.23054257460553   -0.13360808099714    1.50533910598098
H          -2.59629192897168    0.15130760628383    0.55631390145877
