    26
        -50.45763559  Gyration_radius:  2.42182252591 Dipole_moment: 7.920
 S           1.32793392054993    0.36442532018611    1.60864258659251
O           0.02157671104596    1.03220721813481    1.87149057504990
O           1.03869262744011   -0.95841155928065    1.03545758465782
O           1.99897141913628    1.20079050204048    0.46329099421587
O           2.20332670394422    0.35513073084061    2.72587783305549
O           0.09705813678508   -1.11241876302902   -2.40210759648626
H           0.16872733583145   -1.40033910861215   -3.31277675028772
O          -1.72586817472258    2.29811365955396    0.35291026958396
H          -1.02845830343626    2.00566926372583    0.98436206015134
H          -1.75359588858004    3.25413327944180    0.40882796509126
O          -0.91394115487127   -2.27768653604877   -0.15471757106912
H          -0.71696078554561   -1.97829961848315   -1.06188593160219
H          -0.09087290717444   -2.08089900422726    0.33850504563711
H          -1.67688078941377   -1.20795587337723    0.61923480174076
O           0.19283443556079    1.44811844400843   -1.40821739172210
H          -0.62353372765518    1.73760954705618   -0.96590318891276
H           1.32091320798086    1.31802178356175   -0.25203268975000
H           0.01754847091420    0.58376309314410   -1.81892086502259
O           2.41087525423971   -1.16081271771944   -1.17185162154210
H           1.01333856812600   -1.18595924066228   -2.01222320570185
H           2.90745248953246   -0.33895436000673   -1.20133448517543
H           2.00506356922264   -1.17727940830012   -0.27199154392567
N          -2.00776482557626   -0.39460248756149    1.25221820889650
H          -2.54193569473561   -0.74218060111299    2.04127271217356
H          -2.53903512249233    0.30275315740354    0.73098042165650
H          -1.10546548610443    0.11506327932433    1.60089178269528
