    26
        -50.47250028  Gyration_radius:  2.40908371295 Dipole_moment: 3.085
 S           0.46091765101421   -0.20202437190867   -1.32219243892280
O           1.04240479035817    0.53944245189163   -0.20188808326676
O           0.05436928020663   -1.53567355188966   -0.94245255594758
O          -0.64501453041688    0.57583246101444   -1.89136803975250
O           1.56143767444421   -0.35260225965617   -2.41282668832907
O          -0.31773359110516    2.10151684219504    1.48524450368321
H           0.29080420742422    1.68110024049499    0.84249821793891
H          -0.12658886272663    1.66179533693417    2.31976059058614
O          -1.70292174930025   -1.50902480065483    1.10633249322265
H          -1.23023280024325   -1.80888708765940    0.30918142508207
H          -2.19284936548374   -0.13995683191801    0.60619869055771
O           1.68646466170127   -2.80240006862118    0.80886337087665
H           1.13679160775389   -2.38952126150212    0.11734350117461
H           2.07134852296228   -3.58510813554381    0.41324009779606
O           0.59120626393025   -0.68187891002077    2.18481445772542
H           0.86914290692657   -0.25678971496864    1.35147646301397
H          -0.96858020445735   -1.27781524164380    1.72412177049214
H           1.08251805606297   -1.51366190774439    2.18412488293517
O           1.36561004140106    2.27449803332891   -2.40624138522531
H           0.44301072597783    1.97329576175756   -2.36947614879605
H           1.64081350906630    2.38812816126624   -1.49129190022317
H           1.75934285402125    0.57583068974986   -2.64886392113831
N          -2.25072332075311    0.84630426926770    0.16787227557821
H          -1.67361621183977    1.48980951482495    0.77026349351244
H          -3.20426775504726    1.17078513141946    0.05193740272184
H          -1.74365437190488    0.77700524957616   -0.75667248529218
