    26
        -50.45763559  Gyration_radius:  2.42182255284 Dipole_moment: 7.919
 S           1.30318913189783    1.13415081522879    1.22435380381977
O           1.73211674659500    0.19435977262683    0.17797568785041
O           2.35824750279506    1.73276793574887    1.96134501487210
O           0.50609278176968    2.27029067167724    0.49254740408421
O           0.29898156243906    0.43063073537368    2.07188950203367
O          -0.45916822789805   -0.32915671725215   -2.58790628402916
H          -0.70419545233723   -0.34855810556985   -3.51362979053162
O          -2.26742076962233   -0.11683750758644    1.79718345244653
H          -1.37167807411417    0.22137272592043    2.02938971164016
H          -2.89017798177563    0.40453597789578    2.30531454982796
O          -1.59677096888052    1.12403837970979   -0.55143741034620
H          -0.30631458085475    1.85528162982630    0.10145539334428
H          -1.32804729898143    0.52438499561997   -1.26887360360250
H          -1.99405598639135    0.58420264075715    0.15328875551097
O           1.44707293287695    1.40570079758621   -2.11269121576111
H           0.28128590023002    0.33596932249153   -2.50809233681878
H           1.14856302063903    2.28435164088120   -1.86422048560889
H           1.71103090674489    0.97987640753119   -1.26194812375787
O           0.95063237350673   -2.03660033642865   -0.99800115757443
H           1.51523865092019   -1.30196660793486   -0.68026772936057
H           0.23491008041371   -2.11661702246478    0.34606625248786
H           0.38303035975244   -1.61722160277176   -1.67132972701021
N          -0.15349376299160   -1.97918921420782    1.34704023707467
H          -1.17314747417808   -1.96040449671994    1.36154292388023
H           0.16907121778509   -0.98643365031527    1.67226228450437
H           0.20500741965793   -2.68892919762546    1.97674290102259
