    26
        -50.45763560  Gyration_radius:  2.4218250216 Dipole_moment: 7.920
 S          -0.15871760968175    0.98865543040765   -1.86580269989781
O          -1.49212157099158    0.94842916888875   -1.20099056259109
O           0.68491026502290    2.02401229602968   -1.04242814610943
O           0.47797708115025   -0.31987460495453   -1.65488615454598
O          -0.20309835724194    1.42283753338061   -3.21640188065646
O           1.92340703325256   -0.97100661172437    1.54102970343963
H           2.62679170645438   -1.20511262604291    2.14750577214044
O          -2.29915042940410    1.18705438268835    1.29980211277762
H          -2.07247011181742    1.27863133376188    0.34540291141367
H          -2.71285570001720    2.01204804411860    1.55690341908436
O           0.43143788928249    1.33584705577461    1.46516556750612
H           0.58813266780387    1.78677612976001   -0.08349401127111
H          -0.51972723085978    1.20377168800171    1.61923305669401
H           0.87882894221820    0.48682225110590    1.62489533858325
O           0.30487623662250   -2.43846895799886   -0.08925607145074
H           0.87324879388258   -2.09769744650760    0.62642985668734
H          -1.10100259170575   -1.85540403888751    0.00606593864629
H           0.51843838617872   -1.86025674397096   -0.85051087733727
O           2.84411330219568    0.12449380397741   -0.65486539705773
H           2.36664045938369   -0.58655751482442    0.73312529107780
H           2.02551915851115   -0.06931287760606   -1.17163712392619
H           2.90312972672382    1.08324617311980   -0.64043272280811
N          -2.02009599659146   -1.29105763679716   -0.08584779929169
H          -2.34775191100989   -0.94587734899625    0.81622777282141
H          -2.73837157388815   -1.83874452243709   -0.54723187632470
H          -1.78208855547383   -0.40325435027021   -0.67800140760487
