    26
        -50.45763560  Gyration_radius:  2.4218325518 Dipole_moment: 7.920
 S           1.71766889801660    1.23504696490841    0.09089835916226
O           1.28058619865878    1.42945870390766   -1.40333602402974
O           0.62153641231677    1.83434406749954    0.90387559318237
O           1.70597265113296   -0.21463299704968    0.33665867081572
O           2.97720667339370    1.86363165784941    0.27274345042794
O          -0.78679305978620   -2.16175706765109   -1.31334769712226
H          -1.11086320641432   -2.86345931751010   -1.87899360160408
O          -1.99404934121324    2.01084025563667    0.60430220795209
H          -2.35541823980813    2.85801821481974    0.34054180841520
H          -1.01902197980717    2.13599815539599    0.66982778456396
O          -1.17369354877526    0.54785384483385   -1.56186409614988
H           0.34290122986403    1.11302161911565   -1.47957850244669
H          -1.19058629730189   -0.41654632149797   -1.43472044335830
H          -1.65969744086822    0.95318443048359   -0.82334638997477
O           1.62602534362820   -1.39179517787971   -1.98798381554394
H           1.66347534566428   -0.66008726223016   -2.60935935221983
H           1.81196441915788   -0.98430684871373   -1.10816922279759
H           0.13747600181024   -1.95273275361252   -1.62802468497635
O           0.11547697109740   -2.10954042255624    1.25840644022339
H          -0.34055545396633   -2.29476586274224    0.41631447976021
H           0.92066375842323   -1.62373443682015    0.98435974928059
H          -0.45479110175863   -0.86205511300030    1.92473759370887
N          -0.67783907656166    0.12939200957174    2.29752878511387
H          -1.62622840745065    0.42128698108956    2.06174283225780
H          -0.01234908679285    0.81740092774737    1.76908184024510
H          -0.51906765265778    0.18593577840425    3.29770422511485
