    26
        -50.45300974  Gyration_radius:  2.43483057813 Dipole_moment: 5.196
 S           1.66589175039237    0.69982317263036    1.05984868307408
O           2.28315807006627   -0.11606480203820   -0.08747422653325
O           0.61138354677614   -0.24266541877962    1.68313927641128
O           2.65324952285069    1.02832137374953    2.01774002648073
O           0.95287394505871    1.82406810702922    0.47203737156940
O          -0.96346375688483   -0.01844171757870   -2.11485373042224
H          -1.56335606057488    0.16289995932797   -2.83925962097852
O          -1.52500595234204    2.67992319336235    1.00466263753594
H          -0.58451900817841    2.55785835487432    0.76960929913923
H          -1.53499417875884    3.09848835123207    1.86661148938296
O          -1.62688976161230    0.05790451954203    0.52126756321890
H          -1.47281262638687    0.02283979775317   -0.44425704592576
H          -0.29185901206324   -0.13554961343723    1.20928357361140
H          -1.80726113537411    1.00232459494096    0.72028537988076
O           1.12967558932160    1.55757139927575   -2.14816330650091
H           1.94123783116621    1.04959964471205   -2.22920463927800
H          -0.21015408815023    0.62658149086902   -2.20241829043602
H           1.08647043808521    1.82404001020524   -1.20567315236580
O           0.72877063905567   -1.86105531220130   -0.98909582917701
H           1.65297405044999   -0.86395811013599   -0.44863398860871
H           0.22565029054383   -2.28296771296579   -0.23857997209987
H           0.07236608298706   -1.37405857084550   -1.51430057530149
N          -0.71646030597268   -2.79960407999792    1.05563525247146
H          -1.00874944044147   -3.76074691692704    1.17557152206718
H          -1.53969920474498   -2.20841517539794    1.04981018393205
H          -0.15847721526943   -2.52871652919845    1.85641212885242
