    26
        -50.45763562  Gyration_radius:  2.42183484235 Dipole_moment: 7.920
 S          -0.91019129664747    0.59392523284454    1.81736038095902
O          -1.76403051917754    1.39443929578539    0.77252222770933
O          -1.51344963090569    0.74165491030961    3.09364229617045
O          -0.84183073984530   -0.78780921230475    1.31909713300972
O           0.46220647150048    1.16865915791120    1.72881572290122
O          -0.70086502711384   -1.27830299522922   -2.21182409685266
H          -0.99197190997067   -1.62655319661990   -3.05524847414097
O           1.90583337788830    2.16651410631227   -0.24146427690452
H           1.34903798943983    1.98147248917421    0.54999026197265
H           2.00709824828219    3.11839435102118   -0.28069693180085
O          -2.68096005433679   -1.04126748015295   -0.51103007901153
H          -1.51015688803040   -1.24587831204631   -1.62789259532687
H          -2.08696004287853   -1.02345560533994    0.27733912202775
H          -3.11768549135354   -0.18559486322200   -0.50773213997658
O          -0.40763238545622    1.34883129137577   -1.45993960746897
H          -0.38428856901268    0.44439049269360   -1.81765964162605
H          -1.25602771496415    1.40063921195075   -0.08017360047764
H           0.50366665087581    1.60194892250755   -1.23328494614644
O           0.70759347023805   -2.35102359973588   -0.13896632125784
H           1.69108215478398   -1.29321184651688    0.35028309816806
H           0.02933978736486   -2.04979655513233    0.50030584416928
H           0.33351616335738   -2.10554684987352   -1.00567519349445
N           2.20631915718242   -0.46483202199136    0.81930462346644
H           2.87901792666222   -0.79518070695303    1.50275385317896
H           1.43906410475851    0.14301301724334    1.30643092804844
H           2.65227477735469    0.14457076598616    0.13374240270342
