    26
        -50.45763562  Gyration_radius:  2.4218347601 Dipole_moment: 7.920
 S           0.37214127518503    2.07174094945224   -0.23108493441953
O          -0.28878332283096    1.72461262999853   -1.61102354856185
O           1.66262889438691    1.32612391399751   -0.21288002190751
O           0.52183416605198    3.48086660540507   -0.14986419528639
O          -0.49341253177197    1.47889045614242    0.79919411556723
O          -2.09780451857163   -1.61699273107567    0.04470759220506
H          -2.84401999940876   -2.20712708525396   -0.06616143804267
O           2.44748417747463   -0.99940295942795   -1.18123516419151
H           2.99732082382598   -0.99170061555025   -1.96576695687971
H           2.26064851253720   -0.05609062900089   -0.96695518422215
O          -2.76141431361188    0.88883537305133   -0.34273474920362
H          -2.44812292774910   -0.69284011776415   -0.09741559291844
H          -1.98041174880417    1.23912660915711    0.14921079225726
H          -2.64778263072752    1.20822863571017   -1.24161875474712
O          -0.21480782571859   -0.87889297995103   -1.81612239826860
H          -0.81048958501386   -1.28216914664256   -1.16110037589954
H          -0.25594613437629    0.73788574729053   -1.71343026806853
H           0.69380605234561   -1.14645542803541   -1.59535433313537
O          -0.73580683607233   -0.72570396130993    2.23143990280352
H           0.74965757189634   -0.73064526900881    1.88652951905157
H          -0.82646024516802    0.20218887240992    1.93105743403416
H          -1.24838325259804   -1.23249956469735    1.57432484034419
N           1.75683192158362   -0.52696376238115    1.54627294205310
H           1.69431245075803    0.35049767556554    0.89696480519648
H           2.12253396299487   -1.28021456711902    0.96393344786057
H           2.37444607338013   -0.34129868096121    2.32911254437988
