    26
        -50.45011627  Gyration_radius:  2.45260036013 Dipole_moment: 5.256
 S           1.59172966685605    0.60102696978116   -1.25733546952598
O           1.85750340309101   -0.86154602711209   -0.85639817141278
O           0.21598572120690    0.72393173507941   -1.69025988390842
O           1.74162787464488    1.36291937197676    0.09366013122101
O           2.59705194125234    1.04187386717929   -2.14954419213948
O          -0.15728019806503   -0.77127399847827    2.41176582869777
H          -0.34633889300733   -1.06968374082230    3.30228762927875
O          -2.02062392190144    1.85578320569224   -0.82461420000486
H          -2.08401588507668    2.74789864028352   -1.16969190901661
H          -1.23514824129659    1.45159942405520   -1.25106685105161
O          -0.43217572668790    1.71050702965574    1.32566383187028
H          -1.15471523203012    1.76743866669948    0.66379218637242
H          -0.52609174107051    0.85812570569422    1.78878939451717
H           0.84131810592475    1.55167723534134    0.56118186286387
O          -0.20150317797163   -2.02199556045262   -0.03205921839143
H          -0.95887104969755   -1.75281901031216   -0.62361240979646
H           0.98768794786449   -1.35028715006120   -0.55137303482329
H          -0.37520537517006   -1.64725163188243    0.84817685399311
O           2.44100032919905   -0.60070577151714    1.90939113090394
H           2.67081763192704   -1.27781328645130    1.26494376635054
H           2.45585340250163    0.23443417496726    1.41523413875946
H           0.83049008075945   -0.73173862536212    2.33164149311848
N          -2.06823457348553   -1.11388199982721   -1.69054363555274
H          -2.71948785374087   -0.46180340168393   -1.26967597632347
H          -2.57196930299711   -1.68415745655761   -2.35706142860659
H          -1.37940493302955   -0.56225840588407   -2.19329186739426
