    26
        -50.45763560  Gyration_radius:  2.42182066016 Dipole_moment: 7.920
 S           1.80988415246957    0.63292932583033    0.89867981236859
O           1.48223236428274    1.85876191399699   -0.02412812316407
O           1.65720782589462   -0.56486630982632    0.05957802385082
O           3.10612104991937    0.82020356002963    1.44578539448143
O           0.72310617100257    0.60493101391979    1.91835209377216
O          -0.89118928552139   -0.53397074844150   -2.43676427235386
H          -1.24039320385264   -0.60272558731851   -3.32597190414514
O          -1.84442183573764    1.21158441663697    1.87476969310842
H          -2.11427406177598    2.03375698854826    2.28596603739295
H          -0.86793423637287    1.15297279672530    1.99172691769685
O          -1.02534757632333    1.60031249848165   -0.71047287064951
H           0.52690718951659    1.78541542801434   -0.28330066110134
H          -1.13360613836022    0.82977818491809   -1.29449248835402
H          -1.51789043820386    1.42302276226642    0.10920779471175
O           1.61571624145361    0.23080805928714   -2.42258888613028
H           0.06505662012572   -0.26270990636556   -2.53163585082672
H           1.75408778000732    1.17904772038318   -2.35468965168018
H           1.78295307133187   -0.11352313497581   -1.51255428100937
O          -0.14454597374551   -2.38534987557562   -0.58047403287087
H          -0.56336088655415   -1.88159787281458   -1.30311827076459
H           0.71490850010854   -1.93383263183369   -0.45053860143960
H          -0.64312474537908   -1.90633864124716    0.77875365821313
N          -0.80113576236211   -1.44039752795097    1.74291671229618
H          -0.69864240927665   -2.11465887008202    2.49366704947254
H          -1.70460117332662   -0.97009701817907    1.79596098116104
H          -0.04771324932060   -0.65345654442741    1.83536569596242
