    26
        -50.45011622  Gyration_radius:  2.45257932737 Dipole_moment: 5.255
 S           0.68615711209785   -1.98124184715042    0.28283635187679
O           1.59822934206510   -0.86036050252333    0.36633394183284
O          -0.02973305483784   -1.93859482001934   -1.07955495533537
O           1.21994127659504   -3.27284608530484    0.50159335628632
O          -0.47525265779225   -1.73365821480762    1.29181817940223
O          -2.28882450515005    1.05963786789028   -0.27138668933534
H          -3.08940198268673    1.57442092548054   -0.38037745848981
O           1.80184370874573    1.40741715026900    1.72595292613708
H           1.84132415222828    0.56941499048997    1.21766050369983
H           2.29586604091440    1.25508058700875    2.53324908354070
O          -0.24787045284044    0.38659791826659   -1.98020086337803
H          -0.92823733213904    0.81370630952083   -1.43237450527319
H           0.61292270712646    0.86096206202318   -1.80707731175708
H          -0.08189422966220   -0.97136047195798   -1.46722719101281
O          -0.76539158481887    0.68327049227487    1.95397988607746
H           0.11074793132203    1.12291177797910    1.90427247267282
H          -1.30364580664731    1.01916685691481    1.21415707791522
H          -0.54844358098112   -0.75206329911639    1.60137971843555
O          -2.73088208201420   -1.55491983919510   -0.29630070693644
H          -2.33885059239250   -1.92156152985546   -1.09533979075488
H          -2.13884010436480   -1.82604408902984    0.42330320208147
H          -2.56299738061541    0.10649236518445   -0.28371285265193
N           2.10001267373328    1.46080019465705   -1.35297060869768
H           2.79422439308973    1.75848131548247   -2.02577204305668
H           2.40854194991844    0.58763995896906   -0.93591343265986
H           2.06045404910624    2.14664991654747   -0.60832827061856
