    26
        -50.45763560  Gyration_radius:  2.42182492633 Dipole_moment: 7.920
 S           1.64045039152875    0.83279469664284    1.04847494491535
O           2.37704546794436   -0.02413568096304   -0.03997246738885
O           0.92858972361490    1.90263678025554    0.29329727019236
O           0.61826067652476   -0.04406165459328    1.63869594052042
O           2.60998644755770    1.32259844620669    1.96209774109889
O          -0.98138176945013   -2.40907069871071   -0.50020686998896
H          -1.25760088611502   -3.28207586174397   -0.78113271790630
O          -0.23612522532317    2.00895073056605   -2.07191174128336
H           0.22718745911914    2.46474512791316   -2.77580243467778
H           0.33976671871174    2.07541507830323   -1.27530880115583
O          -1.93315325520008   -0.66542698272966    1.36652217806047
H          -1.81155680439468   -1.34640753919468    0.67887165043974
H          -1.03793463228226   -0.56022014610757    1.74986237780374
H          -1.87940983948575    0.73427406637829    0.76372333412673
O           0.58209599399993   -0.59619980417057   -1.85015498526022
H          -0.08197068306625   -1.20387739244525   -1.48103030787614
H           0.13288684449314    0.23910794356406   -2.06550885645481
H           1.71258745823284   -0.23879273208824   -0.74538716688947
O           1.20328344317100   -2.48814947374842    0.94569558074346
H           1.04488902439128   -1.60162339607396    1.35027673273091
H          -0.16394594861596   -2.54010832988807    0.05801224790943
H           2.02305086453928   -2.39002219728231    0.45451432456677
N          -1.61939141263718    1.72251847833721    0.40671527900864
H          -0.53284380468960    1.80858398481034    0.49321598231764
H          -2.07377672897278    2.44040194727085    0.96073379247180
H          -1.83098951359860    1.83814459949097   -0.58429302802391
