    26
        -50.45011626  Gyration_radius:  2.45257599089 Dipole_moment: 5.255
 S           2.09918548481412    0.04001813682487    0.25986090394833
O           1.21091815230880    0.45958111016500    1.32293652760356
O           1.76274962920722    0.87979246431592   -1.00884713884036
O           3.49016077217861    0.11376828677404    0.50634597690984
O           1.72204234081980   -1.39040222033988   -0.16698742725562
O          -1.53194498932013   -0.44250946549289   -1.97312550844909
H          -2.20936056869428   -0.58549535457189   -2.63531197647474
O          -0.75481010626179    2.20681009997305    1.66293121998857
H          -0.00582444595527    1.57353803475799    1.64928505161811
H          -0.39346900694428    3.04343573559932    1.96037738225686
O          -0.54585524441885    1.89649768790386   -0.98797324789831
H          -0.79973472746523    2.06298461034169   -0.05458422152392
H           0.83984904972754    1.33939499117675   -0.96495301332249
H          -1.08445698056862    1.15036635149168   -1.30906652670632
O           0.90775149415011   -0.99004889975942   -2.85661801064869
H           1.39177311429653   -0.24397821760389   -2.46807720388186
H           1.23148964246505   -1.76850227713163   -2.39209005402496
H          -0.66612873865685   -0.66314092414793   -2.40366887979867
O          -0.70136041967906   -1.89655420313097    0.20289125329150
H          -0.96090955539571   -1.50978383353115    1.08548567130679
H          -1.17780325141032   -1.39775421123122   -0.48238624051076
H           0.72013921025295   -1.60743540614429    0.02654522319671
N          -1.17550147524182   -0.72929895732660    2.54235263724917
H          -1.41729997316718   -1.22172754313303    3.39220038889380
H          -1.74350092010748    0.10761725295618    2.48399564687467
H          -0.20809847693712   -0.42717326873693    2.60848155620339
