    26
        -50.45011624  Gyration_radius:  2.45260472426 Dipole_moment: 5.255
 S          -1.83741049335572   -0.44877528103357    0.94815534613786
O          -2.13938862038997   -0.22332783924943   -0.54464743871628
O          -1.38989379594019    0.96462550414731    1.42792468615077
O          -3.02475294201459   -0.81164178453064    1.62605661027724
O          -0.70377028586569   -1.34112211070280    1.06561580880842
O           0.90012191703630    2.01277977307001   -1.25481771525345
H           1.35157466074976    2.70477148714542   -1.73974659743060
O           1.82682207590113   -1.20706314964337    1.84742280670579
H           0.89350288450335   -1.36672963227250    1.59131938008904
H           1.88450518615956   -1.39913582638443    2.78485890002906
O           1.10606782055354    1.32717555081591    1.37241648661945
H          -0.36530242147430    1.08320949003424    1.45721682099006
H           1.54569419780567    0.46134463796196    1.51529406663069
H           1.24134997267052    1.57355881004212    0.43921547908830
O          -1.65667872070831    2.56065563269215   -0.81365554286161
H          -2.19152408206366    1.94781045598000   -1.32843318846311
H          -1.73243544553743    2.25342148203019    0.10382549459708
H          -0.03590189813270    2.31793934533438   -1.13436795615801
O          -0.10191383197974   -0.43765641044826   -1.98269453927085
H           0.42410059046578   -1.21753466504226   -1.64944978266252
H          -1.29383731390591   -0.35324869231815   -1.14192240948396
H           0.42374019016905    0.36135194752844   -1.80748293094624
N           1.15627460566360   -2.50225084847614   -0.88073082290337
H           1.30509476057621   -3.39381954507263   -1.33479597753767
H           0.41607657990189   -2.60969478525945   -0.19362503924249
H           1.99788438921579   -2.25664356634939   -0.37295196519591
