    26
        -50.45763560  Gyration_radius:  2.42182904958 Dipole_moment: 7.920
 S           1.18194717794686    0.37134903950588    1.71726760803583
O          -0.21922128911375    0.81612678427181    1.96319517334251
O           1.11739133152167   -0.90907757985329    0.99722425394153
O           1.77698611874270    1.41294503543712    0.70602552028781
O           1.99494998634438    0.36436784631123    2.88070391297275
O           0.37350898574303   -0.82079985105919   -2.49076326271157
H           0.52996206625172   -0.99520125241702   -3.41945871952728
O          -2.05900577850920    1.98031532686408    0.47259097513396
H          -1.35711515659299    1.72227788690585    1.11401397958270
H          -2.22930094849466    2.91113048557467    0.62243149617492
O          -0.56172727512779   -2.35339000635396   -0.43954182921981
H          -1.50927777382594   -1.49197018232979    0.38845571228525
H          -0.36781189284061   -1.93275144827359   -1.29793431665209
H           0.19915573596350   -2.09724613216227    0.12161620762941
O           0.04538174774510    1.60480512139341   -1.24091739161184
H           1.12392156234955    1.51035513666970   -0.03506418735190
H           0.01847387986321    0.77400488035198   -1.74644786294307
H          -0.82475122197495    1.72686701132233   -0.82394030676388
O           2.60812930177764   -0.67601554975046   -1.12867818448037
H           2.16664914967204   -0.84678434968111   -0.26229093651600
H           1.27101885377537   -0.80644542142816   -2.05346052082915
H           2.97974742817286    0.20585000632354   -1.04432880415773
N          -1.98561367008792   -0.80668794727753    1.07779430336088
H          -1.18544273349688   -0.21583984325387    1.53177975603729
H          -2.50002096393002   -1.30939737615515    1.79293421102595
H          -2.58793462187525   -0.13878761093547    0.59679320295365
