    26
        -50.45011625  Gyration_radius:  2.45258725794 Dipole_moment: 5.255
 S           1.44889079588299    1.49950754619065   -0.35819509490297
O           1.36575420938442    1.27967913055142    1.18221946224711
O           2.35323084506180    2.55385478237032   -0.62562345288201
O           2.03780811748165    0.16921690348146   -0.86211886154120
O           0.09960172307157    1.63439994535501   -0.86459271622224
O          -0.05757750558874   -2.10525946330822    1.41436547537836
H          -0.20275039465369   -2.91450318527695    1.90616930385441
O          -2.37083710488002    1.60515844824594    0.09945140868220
H          -1.49724893211444    1.68567462754828   -0.33932384887958
H          -2.63098013106373    2.49465345390559    0.34464001501141
O          -0.87152962870805    0.43070273037076    1.98101123487115
H          -1.56287591557451    0.76323765693301    1.36878125657332
H          -0.77798161701472   -0.52669449219179    1.82448276555140
H           0.43012514115047    0.98881305474347    1.50587768400275
O           0.28354483503811   -1.57198607795795   -1.25727257659970
H          -0.00547311325331   -1.85390996972068   -0.37273139820271
H          -0.49416255131330   -1.12514334920068   -1.69482007629677
H           1.29786380870892   -0.53855035497361   -1.06227100670430
O           2.44306109756472   -1.23657341824031    1.57025995031216
H           0.89510958227075   -1.86275832607910    1.54596130176778
H           2.84918005935588   -1.32328897599140    0.70183972834681
H           2.27811724960102   -0.28636409093619    1.67865433998474
N          -1.68393400440075   -0.15811393196052   -2.34807599249236
H          -1.12730477514753    0.68987909431612   -2.29668023082794
H          -2.48600054627979   -0.02257579521943   -1.74407870438202
H          -2.01363121457987   -0.26905597295516   -3.29792996665011
