    26
        -50.45763559  Gyration_radius:  2.42182466617 Dipole_moment: 7.920
 S           2.09562557939002   -0.29936595916926    0.05163569637886
O           1.39608835669373   -1.61317829105497    0.12981566438124
O           1.89364236374488    0.19158892651425   -1.42477660762816
O           1.35614956010455    0.64442861211467    0.90283309291883
O           3.48923877337108   -0.37434549808268    0.31013517937354
O          -1.67885859324123    2.01384361941654   -0.37809158800558
H          -2.27585139084897    2.71598772206308   -0.63877338252237
O          -0.77041979900337   -2.60434216788355   -1.00422716330683
H           0.13400230890530   -2.35232688994928   -0.70564856684986
H          -0.65132946129563   -3.23482452980868   -1.71568995635911
O           0.83207800856796    2.74598985196582   -0.54798598737190
H          -0.75637777742401    2.38873251333431   -0.45199090750826
H           1.14678974193377    2.03979573810456    0.06598464578950
H           1.25975918776059    2.55038093659916   -1.38567952958829
O          -1.01001422623454    0.93887379197370    2.03601575908652
H          -0.05641106429699    1.03887911730501    1.83580515256630
H          -1.45143485993475    1.35351754761372    1.27142462163323
H          -0.92519991252702   -0.57381969932240    1.86264350116607
O          -0.66304649822015   -0.02367194570119   -1.91758757599477
H           0.92775017686486    0.10263488310859   -1.63533682863432
H          -0.92488332178012   -0.91436920723317   -1.62776259867476
H          -1.16084409344808    0.62030453673269   -1.38466792809478
N          -0.64943301636866   -1.60149280661753    1.66385242551947
H           0.29666624079691   -1.56940682716676    1.11672225079417
H          -1.31546111776149   -2.06221109837393    1.04385771576205
H          -0.53822516574866   -2.12160284648549    2.52749292517034
