    26
        -50.45011625  Gyration_radius:  2.45259755632 Dipole_moment: 5.255
 S           1.99066883973715    0.29253803415054    0.65389349543541
O           1.76312554248811    1.19971423852045   -0.59242318112395
O           0.87614969306085    0.48508482192836    1.55720373636220
O           1.91135480549808   -1.12687267200998    0.06269925520761
O           3.28956362461367    0.52580617241429    1.16329824518390
O          -1.07613365831234   -0.44728133281874   -2.25350800232818
H          -1.59699650016672   -0.61366885333114   -3.04017447842317
O          -1.35570271259845    1.91475579797998    1.64367852444545
H          -1.18071277092432    2.75892706032263    2.06289382165575
H          -0.53064834864677    1.39073752659607    1.72659822617942
O          -0.63759068255605    1.89455870456547   -0.93533641588152
H          -1.07437863102511    1.93417827607510   -0.05724974860495
H           0.78925770625690    1.52647452568815   -0.69084445715908
H          -0.99428154430892    1.11850950843445   -1.40481083975494
O           1.53512969781595   -0.57811101884496   -2.69692628456404
H           1.82676738605241    0.18398888702972   -2.17154757845984
H           1.88341187800559   -1.34840178035456   -2.23656803556472
H          -0.12484689150317   -0.50828184058435   -2.52739890023888
O          -0.43704828717334   -1.98332848573792   -0.06920831696796
H           0.93444576586009   -1.49258470493018    0.04734925708350
H          -0.90302397756479   -1.72229356250716    0.77378951548749
H          -0.85339364295050   -1.48769990719751   -0.79475782592657
N          -1.48521997432226   -1.12295644770418    2.21586097841015
H          -1.79774738122931   -1.72362807683376    2.96735808198544
H          -2.15170894143474   -0.36709977975033    2.11116938803913
H          -0.60044100467054   -0.70306509109933    2.48496154952165
