    26
        -50.45011626  Gyration_radius:  2.45259234315 Dipole_moment: 5.255
 S           1.83766502892456    1.04778916694369    0.02447960722537
O           0.99818369909790    0.99279636609284    1.20238157117402
O           2.14083505278384   -0.38946490199561   -0.43692748323880
O           0.98436000620242    1.61535434025776   -1.14931593428358
O           3.04217320254687    1.78373027465014    0.11706071866916
O          -1.36702693504314   -1.13576761749854   -1.81038929563296
H          -1.97030902409581   -1.59083151235109   -2.39928124118483
O          -1.50362593522287    1.57875668654043    1.85854993427166
H          -0.55138643195299    1.38455198625248    1.72551344224301
H          -1.55264858455898    2.48751603677126    2.15977413255641
O          -1.50586030958576    1.39377008414009   -0.81225319242064
H          -1.68915017865395    1.42206708491930    0.15158665697887
H          -0.03208019944058    1.57349621742888   -0.97632237186633
H          -1.65715837966165    0.47887070526336   -1.11217030934950
O           0.90435632657713   -0.44419898327136   -2.99149642787681
H           1.01668679104280    0.44467339380299   -2.61847205767718
H           1.61650944538007   -0.96804043593796   -2.61069518696720
H          -0.56304727758623   -0.91397339310099   -2.34714379645602
O           0.32356648998343   -1.99906540983092    0.17340022955489
H           1.39829350398197   -1.06154026171432   -0.14474181548444
H           0.02361728816719   -1.78089961992466    1.09988244184892
H          -0.41513200080539   -1.79488694492208   -0.42497084511551
N          -0.35352457128816   -1.19293422898335    2.61304932488438
H           0.35041337601436   -0.46131423590676    2.58635042425256
H          -0.22048618466560   -1.73636064038048    3.45575989580237
H          -1.25522416814214   -0.73409416724362    2.66639155809173
