    26
        -50.45011622  Gyration_radius:  2.45260396576 Dipole_moment: 5.255
 S           2.00749273595632    0.50218060497413    0.44074177313684
O           1.71634568558405    0.95399713920487   -1.02184397944200
O           0.92369232393161    0.97055744734893    1.27813804231027
O           1.93377615845797   -1.03272939969023    0.34544268152290
O           3.31961111038673    0.89628788634229    0.79295551049331
O          -1.14999509499688   -1.16168863225289   -1.94002557198280
H          -1.69630741313745   -1.57800103361251   -2.60788038619686
O          -1.33129392425857    2.33580550640831    0.98870993954421
H          -1.15778724048976    3.27149263902995    1.10452782716754
H          -0.49348855438822    1.87269148337359    1.20269229973777
O          -0.70866165815455    1.48414742211317   -1.47180182261406
H          -1.06714306521132    0.59533867976875   -1.64902094559775
H          -1.11344888508716    1.80393339939266   -0.63677927509327
H           0.73328851038809    1.22469150667591   -1.18045194903012
O           1.44502338691169   -1.41254753105580   -2.42475560450856
H           1.74102401707395   -0.51916663860552   -2.18777530095299
H           1.82505073085201   -1.98898668826639   -1.75400921536141
H          -0.20847122359068   -1.30223614098502   -2.21850870068953
O          -0.40031912978831   -1.90167381491999    0.59560765003229
H           0.96440774088619   -1.39034736181007    0.49001599091937
H          -0.83990893168758   -1.38427685997162    1.32703085483293
H          -0.85285956996038   -1.67106547800277   -0.23353450778610
N          -1.37971290963953   -0.35241924073047    2.51941874368093
H          -2.06480667242969    0.32372473098304    2.20328159476471
H          -0.49410804200899    0.13823497121315    2.60002266176419
H          -1.65140006559956   -0.67794460692398    3.43780171934909
