    26
        -50.45300969  Gyration_radius:  2.43482035253 Dipole_moment: 5.195
 S           1.87972297637216    0.91413874087479    0.13871671612078
O           1.51021099087832    0.76659156814206   -1.26108105227356
O           0.92857514166793    1.94418975366693    0.76909346749453
O           1.53951548722939   -0.41510392369800    0.85006898157217
O           3.22594805865473    1.26950844647640    0.38729924064874
O          -2.14715308848224    0.31891637648997   -0.83081875551448
H          -2.93318820319042    0.22394341277148   -1.36991585193294
O           1.13200773920107   -1.48858794727009   -2.64928185839914
H           1.97968846591002   -1.90645426293875   -2.80769656911071
H           1.32647308535568   -0.59058813764850   -2.31702126522094
O          -0.30250587108964   -1.63280723444062   -0.40429353441214
H          -1.02146147988136   -0.99308236156537   -0.58074414586131
H           0.13505217037976   -1.77578133126161   -1.27161480843835
H           0.78662548541716   -0.90559739582256    0.35548034481398
O          -0.61665969645947    2.27961265413156   -1.65504066671905
H          -0.50474447257463    2.94090976264084   -0.96698325652639
H           0.22270328286983    1.77310221910801   -1.66355719276142
H          -1.62732869721246    1.07431037600636   -1.21858966370489
O          -1.17134235240039    0.91280375809296    1.66384092390573
H           0.06541851231784    1.51885592898166    1.17011413922890
H          -1.70807130100353    0.70213472319280    0.88194354855382
H          -0.95889321408274    0.04030543258965    2.09738556812987
N          -0.54591978662696   -1.50109304599040    2.62959251652223
H          -0.94818764719714   -1.92578875353012    3.45504181777231
H           0.45610171757697   -1.42832337890081    2.75870875136940
H          -0.70258732363017   -2.11611538009747    1.83935262474321
