    26
        -50.45763560  Gyration_radius:  2.42182700708 Dipole_moment: 7.920
 S           1.08133553417313    1.18368314897802    1.38329290580380
O           1.68459108839274    1.67756307746948    0.02175790845139
O           1.10145293806453   -0.28570315789005    1.33218564550227
O           1.83610294231233    1.75703051908754    2.43980060223362
O          -0.34627594916677    1.61146295842361    1.36068218454280
O           0.52626195527472   -1.84873355694877   -1.82270006463634
H           0.73455456656546   -2.42046937013041   -2.56235712329471
O          -2.15442604886788    1.85628476663821   -0.54530679520966
H          -2.36753138742201    2.74085127203668   -0.84530043874615
H          -1.47535494516692    1.96132254029186    0.16072014428340
O           2.68432443694967   -0.96916497438549   -0.62318285302470
H           2.20788587185237   -0.74844875574499    0.21287873257462
H           1.40008544274548   -1.58460082234645   -1.41817490065607
H           3.01711800502296   -0.12728896941759   -0.94473404786059
O           0.04419003583605    0.85694890010974   -1.83876240689293
H           1.06529883562335    1.38715420377707   -0.69750312250959
H           0.07407746275816   -0.11318169267574   -1.90559475173796
H          -0.84935990023420    1.10702794846789   -1.54733809661364
O          -0.44848459512125   -2.32056753567902    0.67891967830722
H          -0.22912314342491   -2.33004333432613   -0.27143530576223
H           0.27358719374034   -1.79298042886370    1.07855165806340
H          -1.46789990505100   -1.23068773132519    0.99266392584927
N          -2.00342041954292   -0.33388081844877    1.27662804532123
H          -2.53245199508812   -0.48103670741558    2.12940565623631
H          -2.60677402578398    0.00380731272359    0.52684468852840
H          -1.24976399444198    0.44365118759254    1.42805813124715
