    26
        -50.45011625  Gyration_radius:  2.45260510207 Dipole_moment: 5.255
 S           1.94776518665103    0.27386913788611   -0.77936654370021
O           0.94440110545041    1.30934594589841   -0.90691026354072
O           1.39564163073922   -1.02984864173328   -1.38426223431111
O           3.23083137101241    0.54134749089082   -1.31153053917683
O           2.08768275071526   -0.07804596182830    0.73215313664909
O          -1.09812521005548   -1.77776011059159    1.43869225502785
H          -1.62103307048274   -2.37512667838706    1.97491066078684
O          -0.65091376447852    2.70383177793553    0.68795650805661
H          -0.06289265641703    2.27902038439822    0.02770855538277
H          -0.20523960804071    3.50504120832407    0.96801492817672
O           0.09045658495255    0.57288779814237    2.12911046412804
H          -0.50042200918045   -0.18797980757455    1.98134295968974
H           1.29195822275366    0.24440039628918    1.30453224422399
H          -0.33068081060606    1.35754079686881    1.71642760479892
O          -1.09895743932496   -1.17714697244054   -1.24043941740374
H          -1.29496104277759   -1.34428920792945   -0.30283915019106
H          -1.46941919545453   -0.27811632838572   -1.46503545590826
H           0.35334106881492   -1.06656384250712   -1.35664545110759
O           1.31575673131624   -2.72801275579783    0.88882562371772
H          -0.22000393094705   -2.21798011721224    1.30132538512626
H           1.35995124524946   -2.91698360987984   -0.05401701346079
H           1.83950396377761   -1.91995745423550    1.00967342473943
N          -1.84765371889429    1.30977108889059   -1.80141654255639
H          -2.37043043460313    1.58130559846582   -2.62372018887058
H          -0.88002802095991    1.59190930781475   -1.92654078688348
H          -2.20652894921050    1.82754055669958   -1.00795016339376
