    26
        -50.45011624  Gyration_radius:  2.45260113167 Dipole_moment: 5.255
 S           1.72051725720908   -0.57063657911215    1.09104068887955
O           2.19659521309079    0.00834604014060   -0.27505264758847
O           0.99372016431871   -1.86404364270967    0.67952970615375
O           2.85275229547586   -0.88851759453928    1.87718579764413
O           0.75474189763126    0.34852401291300    1.65466016789139
O          -0.79743249749201   -0.38383352190896   -2.37744401980331
H          -1.20242130581999   -0.45546031655953   -3.24271782205998
O          -0.37003274868225    2.65917646225182    0.99963870769801
H           0.03091606204178    1.83605153321525    1.35159597953769
H           0.15841940702356    3.38242448858910    1.34114515584797
O           1.38398010865690   -1.87159125703557   -2.13192899504521
H           0.00716519434853   -0.96357611912365   -2.39420926209111
H           1.95131833732545   -1.24915271976803   -1.64969920722923
H           1.19959981731722   -2.57946555524418   -1.50621611527380
O           0.60697431376694    1.68178109674202   -1.29324778483359
H           0.13091954387401    2.13592871554840   -0.56490431162009
H           1.56926969711123    0.73439409344306   -0.65470264465332
H          -0.03028639570955    1.09258811814658   -1.73668241076865
O          -1.40206237081181   -1.47058858026365    0.07041465358229
H          -1.78073253557665   -0.82456559362481    0.73013225846818
H          -1.37965439769188   -1.02260650610048   -0.79226165303723
H          -0.01392428553713   -1.69886593792558    0.46538753853384
N          -2.16702127526653    0.30443132393964    1.89354379269849
H          -2.85684554285993    0.12940629305291    2.61237282705650
H          -2.31096394068102    1.23990227097312    1.53209421463605
H          -1.24551199306282    0.28994947495914    2.32032537537845
