    26
        -50.45011625  Gyration_radius:  2.45260604809 Dipole_moment: 5.255
 S           1.76411244273952   -0.30096846053763    1.12851715505002
O           1.81849051345187    0.29246556346081   -0.19060934736849
O           2.98580032206217   -0.45214955027913    1.82538377392747
O           0.78469027156105    0.54418432675081    1.99717306767164
O           1.04898958698463   -1.66101385539537    1.03212207837361
O          -2.47773495069191   -0.24186245957812    0.48839720499021
H          -3.43252509124734   -0.29061267014502    0.55014034536591
O           0.73415205619694    2.35122068884192   -1.46296257720045
H           1.22532624215923    1.60242609446312   -1.06268999172978
H           1.28972051096011    3.12494325493854   -1.35484982703769
O          -1.25332058349588   -1.21303408974144    2.63078513481460
H          -2.12124786804969   -0.61590623419382    1.33501967514077
H          -0.79300720505170   -2.01966340725548    2.37765110874099
H          -0.55608787361978   -0.54609814750530    2.73533298446250
O          -0.60696548986898   -1.74730803878346   -0.84291931212031
H          -1.35483024451644   -1.19737283112276   -0.55356541402690
H          -0.19531020740808   -1.29629259321727   -1.63226555041202
H           0.38963049770507   -1.70312235096507    0.22467300638491
O          -0.84374564233242    1.92980638261257    0.65838360217815
H          -1.53920954440932    1.27401582713271    0.46821527795227
H           0.16224684114704    1.15147006032130    1.44170758421238
H          -0.41883549461111    2.16449555259093   -0.19467835112825
N           0.66223145929719   -0.44679290642782   -2.78143814739956
H           1.47054969096957   -0.30664291416761   -2.18265526713775
H           0.28387431936892    0.47027331915914   -2.98711052922930
H           0.97300544069885   -0.86646058095888   -3.64775767447472
