    26
        -50.45011622  Gyration_radius:  2.45257021835 Dipole_moment: 5.255
 S           1.09933794871072    1.80514038679732   -0.09318735547868
O           1.76179896044545    3.05170512536460   -0.18386027280862
O           0.96772816390580    1.40753522540329    1.40770792955939
O          -0.21049674571126    1.70096223721060   -0.70041095698724
O           2.00078231554607    0.69479148618627   -0.66321895119264
O           0.31981430743301   -2.20810533788189    1.20717637654161
H           0.32659011766346   -3.07797128062214    1.60855928427016
O          -2.66955023617765    1.03836629994704    0.03888467564837
H          -1.80914643044435    1.35123230560108   -0.31326357012338
H          -3.13630710811319    1.81962733152144    0.34012606392958
O          -1.07207677434411    0.01798066240727    1.92937368622730
H          -1.77886945425796    0.25819141438823    1.29208907809876
H          -0.75822429960145   -0.87455442211688    1.69532082987853
H           0.10099214355413    0.88990487667462    1.62141172252192
O           0.70672906670446   -1.32960792914300   -1.36525921591772
H          -0.12069993051540   -1.01572371277999   -1.82649553627387
H           1.45125980227772   -0.12962049468132   -0.99007617274807
H           0.43070152241064   -1.76038924362699   -0.53841484170216
O           2.54986572462146   -0.84550468065774    1.65706995643902
H           2.17121828636149    0.02988082073221    1.83647377599332
H           1.18440805945295   -1.78268657220938    1.44215629778810
H           3.02051074181776   -0.74922190183799    0.82292275933700
N          -1.45051964871893   -0.26179517183351   -2.49056350307333
H          -1.10094021886410    0.67525896376399   -2.31387854767781
H          -2.30015850323518   -0.36767759175586   -1.94899318084055
H          -1.68474783092069   -0.33771878685138   -3.47165035140883
