    26
        -50.45300976  Gyration_radius:  2.43485056482 Dipole_moment: 5.193
 S           1.72819668106759    1.03735751128707    0.57088792617899
O           1.11101131845660    1.70435624885586   -0.56574747015577
O           0.60047776391761    0.67597728447011    1.56401803939426
O           2.26417245721959   -0.31891846306308    0.08467244832135
O           2.74702385308039    1.76145066800993    1.23269151217411
O          -0.97727450012062   -1.10411600438063   -1.79673385205946
H          -1.56463499648929   -1.30449033254195   -2.52637023987614
O          -1.27950586002652    2.89830389768495   -0.69187043964488
H          -0.35487388465992    2.59583436804609   -0.78251552988614
H          -1.24693609276912    3.72066756661725   -0.20102824047252
O          -1.61204731740431    0.45877403171142    0.33620575389324
H          -1.70827849393421    1.36774858706558   -0.02243277544800
H          -1.46884130209611   -0.11266716165163   -0.44491120534783
H          -0.29369680501458    0.57382100131775    1.07213105063324
O           1.24403593579872    0.02912856421940   -2.60149136038936
H           1.23124108795579    0.77210873471317   -1.96201084051087
H           2.00782447569719   -0.50023237896197   -2.35722579248183
H          -0.17156586559269   -0.67306420279750   -2.19201119255668
O           0.55795177531149   -2.14745451930934    0.22376329203842
H          -0.05793265980085   -1.98097112343458   -0.50891989226313
H           1.56912036216737   -1.09149244021010    0.16700998114963
H           0.02564140523147   -2.04783170976071    1.06107661723385
N          -0.94842903450744   -1.69453798038007    2.38638644413829
H          -1.32202767431456   -2.40529251187658    3.00186696416877
H          -1.71741812301152   -1.14328634776591    2.02304567507450
H          -0.36323451616087   -1.07117327786243    2.92951314669164
