    26
        -50.45011624  Gyration_radius:  2.45260225222 Dipole_moment: 5.255
 S           2.10084960847420   -0.09145120548108    0.23135490282092
O           1.73668316860162   -0.83417817008671   -1.08917347675475
O           1.21716543508436   -0.57074104902708    1.27279857097883
O           3.49297960075409   -0.20466454235688    0.45545168588947
O           1.74320643384062    1.37135432303523   -0.08928495894467
O          -1.54580420131612    0.60393628179611   -1.91895419865397
H          -2.22790805852346    0.80391352174582   -2.56127010077903
O          -0.77333488819124   -2.30661730709752    1.51325344235177
H          -0.01422260923838   -1.68579446553142    1.53520720906211
H          -0.42263183498826   -3.16770789735057    1.74672321650234
O          -0.66751378392919    1.88842219634092    0.34328441217254
H           0.74708912926876    1.58998187933776    0.13048689136356
H          -1.15955299159041    1.44647260179069   -0.36943813222465
H          -0.92387903492175    1.44491683499674    1.19973180113556
O           0.89291106418620    1.17426324040864   -2.79065756993605
H           1.23443163215603    1.91328355829918   -2.27705675910858
H           1.36872232709453    0.39540109158620   -2.46068983560980
H          -0.68118601089358    0.84073590156988   -2.34325906837234
O          -0.58793198564444   -1.81362290717266   -1.11165602717276
H           0.80689627876755   -1.28129103563168   -1.06641800347261
H          -0.83442159707131   -2.04127347882863   -0.18926935038302
H          -1.11759063339077   -1.03844738915625   -1.37331966292154
N          -1.13534794402271    0.56768210573942    2.60094012101193
H          -0.17267077457822    0.24562989616599    2.63325856679341
H          -1.71852771941899   -0.25355767798393    2.49180434359550
H          -1.35841060050987    1.00335369289113    3.48615196065617
