    26
        -50.45011624  Gyration_radius:  2.45258941673 Dipole_moment: 5.255
 S           1.82711349168108    1.02953471758544    0.27934211973785
O           2.17617634668903   -0.42896717137445   -0.06909558043581
O           3.01332200211872    1.75622157985572    0.53598681906679
O           1.18382589908727    1.55572116429534   -1.03874242727549
O           0.80804239927111    1.03290507573657    1.30731098772762
O          -1.07631102136257   -1.19736599350519   -1.96034691874314
H          -1.58441408800818   -1.67069153351358   -2.62039144907408
O          -1.75683819815974    1.67044697086631    1.52614658446302
H          -0.79892852197727    1.46149804350879    1.55663276163912
H          -1.83881042531339    2.59136694469245    1.77948756253451
O          -1.33154525154988    1.37355745127048   -1.10023072096764
H          -1.66733780958985    1.44433777451282   -0.18066436045903
H           0.15223836814741    1.53132338466832   -1.03088906928508
H          -1.44773383043030    0.44832935526513   -1.38371385674504
O           1.36685619966786   -0.57915281824018   -2.78559766678921
H          -0.19278837877360   -1.00640139935435   -2.36859457379038
H           1.43249877407485    0.32374276710895   -2.43582956115068
H           1.99928529949777   -1.09324372609573   -2.27337750184412
O           0.25807856640897   -1.99352038215759    0.30334295063035
H           1.38530411871500   -1.08081204056449    0.12601034856352
H          -0.18365751229118   -1.73348827125010    1.15960314678023
H          -0.37105994666796   -1.80749388804519   -0.41427208027193
N          -0.79000727414185   -1.07798543651932    2.56678604161286
H          -1.68078266165293   -0.60837950388846    2.45504064957029
H          -0.07889301716247   -0.35513137757672    2.62485103436864
H          -0.80363351827675   -1.58635171727857    3.44120477013382
