    26
        -50.45300980  Gyration_radius:  2.43482876201 Dipole_moment: 5.195
 S           2.02736956757619    0.49604628830673    0.17948633218729
O           1.49432369946124    1.05639929939082   -1.05326470512281
O           2.04129257582896   -1.03406107374222    0.03196320819002
O           3.30333240439370    0.96530908503190    0.56945668624157
O           0.99498740849533    0.76923365409773    1.29674139878131
O          -1.51535129250747   -1.08630570355658   -1.38749073228150
H          -2.23251259742236   -1.23798525078444   -2.00410745014532
O          -0.39826547831848    2.92423388779562   -1.34452679178306
H          -0.04236116871421    3.77574683822051   -1.08656951099929
H           0.36366958330952    2.31587854235653   -1.40767701995184
O          -1.32516692280656    1.03828013113222    0.29942045134358
H          -1.18332174306861    1.82054324692487   -0.27684996115058
H          -1.47854127327426    0.29118452778658   -0.31334791490658
H           0.05352129640949    0.86592034258751    0.90151927733586
O           0.81152145750077   -0.98011758900780   -2.58775084511559
H           1.12071799463944   -0.15199248165444   -2.16380423542786
H           1.39918291230684   -1.66574026024046   -2.25937279440084
H          -0.67979145079835   -1.05277301673305   -1.92776240292661
O          -0.11157529725775   -2.10039343100950    0.74055316771413
H          -0.74192734048534   -1.90632416968460    0.02718984712560
H           1.15928199889609   -1.48800410810091    0.35256691733350
H          -0.46292418734724   -1.64108919330561    1.55298831667135
N          -1.08231912702546   -0.69122941744421    2.79544643024641
H          -0.26214982798244   -0.19597437256375    3.12416132886802
H          -1.56896691113769   -1.07662190732738    3.59432410415517
H          -1.68402630067575   -0.01016387847760    2.34670690801845
