    26
        -50.45011626  Gyration_radius:  2.45259840355 Dipole_moment: 5.255
 S           2.01707573429080    0.51532573330062   -0.37628839509896
O           1.61057518038769   -0.52817610885148   -1.43287667458647
O           1.97631679879294   -0.30132484200960    0.95018941485646
O           3.34421915072628    0.94348425829506   -0.61381702971430
O           0.99074395321791    1.53365736618215   -0.30668909852172
O          -1.18973045364255   -2.14840459374541    0.63640641008270
H          -1.74894178952699   -2.88770923356043    0.87833858096209
O          -0.86185645202534    2.33919857454343    1.41138582922764
H          -0.17387737039973    2.14997900201467    0.73827739707291
H          -0.49448817906914    3.00999456400608    1.98934576712899
O          -0.21340837407429   -0.13823467544231    2.19216884469475
H          -0.74352460788456   -0.81390515229085    1.73139487010588
H           1.09888652494966   -0.18151842318769    1.47985381976329
H          -0.61415745065344    0.73576119299451    1.99489001906891
O           1.31726971340877   -2.86469914358541    0.15228339267576
H           1.49226669710779   -2.74246568650187   -0.78635254553776
H           1.78192538505174   -2.13572966117293    0.59338714798387
H          -0.28145369047589   -2.51856475161737    0.48909716730585
O          -0.87201537818750   -0.72171493592789   -1.68787650660318
H           0.57637001187266   -0.57527879267094   -1.56197864492908
H          -1.17962470223610   -1.18067524981817   -0.88778204505475
H          -1.25213822343566    0.20076527830191   -1.66514499754747
N          -1.65858019974620    1.81141706260149   -1.53104963476034
H          -0.69741174790418    2.12271057047602   -1.42719538650952
H          -2.14030908686117    2.04675247131066   -0.67138660686521
H          -2.08413147368395    2.32935517635475   -2.28858108520021
