    26
        -50.45011624  Gyration_radius:  2.45257399401 Dipole_moment: 5.256
 S           1.84691008745621    1.01113484550226    0.20663508490257
O           1.14946937304424    1.55611147952816   -1.07583010250938
O           2.16710092652962   -0.44655648598554   -0.17154457993522
O           3.04981551483304    1.72527311426153    0.41651826513920
O           0.87531757626109    1.01250828665244    1.27958060174647
O          -1.17407975073825   -1.16804598248197   -1.92157048488874
H          -1.71554747460650   -1.63027942499842   -2.56265580363527
O          -1.67118092990915    1.66946643980433    1.62020717211588
H          -0.71477905666311    1.45207340861595    1.60524273935186
H          -1.73332631468545    2.58843166294385    1.88601396737794
O          -1.36761921202064    1.39590633103988   -1.02554496372934
H           0.11907476868019    1.54044837492009   -1.02162823788270
H          -1.50463375092044    0.47463469266168   -1.31257047041651
H          -1.66099026221049    1.46007491647508   -0.09110452651608
O           1.23489386630729   -0.56216558239938   -2.84993030657123
H          -0.30808810974779   -0.98052866985772   -2.36726362887120
H           1.32425039240566    0.33636202062663   -2.49425737924478
H           1.88523785223555   -1.08694036279560   -2.37217969125031
O           0.25372021712962   -1.99833209520021    0.27179673346222
H          -0.14664570588462   -1.74341928644918    1.14963901839050
H          -0.40542060881649   -1.79961400940980   -0.41484409718615
H           1.38000468760462   -1.09361052682133    0.05262901989477
N          -0.68333430753005   -1.09751722172460    2.58931741539464
H          -0.66256504283458   -1.61483820342455    3.45831140947134
H          -1.57384129523386   -0.61903025474095    2.52223632657464
H           0.03625655931181   -0.38154745674531    2.62279651881058
