    26
        -50.45011623  Gyration_radius:  2.4525775226 Dipole_moment: 5.256
 S           2.04485131143086    0.54278330791474    0.01417354748801
O           1.47326067464973    0.88668521166406   -1.39408085968557
O           1.13096677852742    1.06471752524167    1.00795518799460
O           1.98311969889382   -0.99534450553088    0.04186610531945
O           3.39234985068306    0.96791101403037    0.08158635029803
O          -1.47478939072865   -1.30459548635077   -1.59943334521287
H          -2.12984809901024   -1.77070115271227   -2.12047081726361
O          -1.16301180372034    2.39417449938013    1.05850874042588
H          -0.29140955194970    1.95177143391895    1.14082019585292
H          -0.98802668867727    3.33660154980686    1.07336226658904
O          -1.00259160376087    1.37033271342483   -1.40984835384748
H           0.47299447951020    1.14004867842466   -1.38109386776996
H          -1.37139562412650    0.46922199870448   -1.45323516972249
H          -1.24761241669349    1.74724460513223   -0.53734162647544
O           0.98542916743491   -1.57606959718457   -2.55111027667263
H          -0.60064848171420   -1.45987835217723   -2.04161142188300
H           1.30411126185764   -0.66642694675797   -2.43782113761937
H           1.49655098825926   -2.10060228759147   -1.92645022512040
O          -0.24443484811845   -1.85563194838087    0.79250761075131
H          -0.54706876729575   -1.28890971362625    1.55612204235581
H          -0.85024348273676   -1.68811025434455    0.05064309815160
H           1.06564631827896   -1.34638317195406    0.39323130767418
N          -0.87046768857487   -0.17664191734771    2.75453125179281
H           0.00517145222741    0.32290079491763    2.63108550724300
H          -0.95753881126400   -0.43669964150468    3.72817212520209
H          -1.61536471338197    0.47160163290312    2.52793174413374
