    26
        -50.45011624  Gyration_radius:  2.45256837129 Dipole_moment: 5.256
 S           1.59177824965032    1.39041514880014    0.09587267415174
O           0.44487490879813    1.51302802670053    0.97039809121806
O           2.60544409121659    2.37045307490546    0.21004211228696
O           2.20251177373638   -0.01193718668883    0.27142613338150
O           1.07598384876694    1.36160931175748   -1.37425422456241
O          -0.58710894064487   -1.91505995401419   -1.55658309986591
H          -0.91665903271311   -2.65296062428453   -2.07110757729629
O          -2.19062459962827    1.69210597584460    0.73698385419144
H          -2.44556019139755    2.61381158525547    0.67007844120189
H          -1.22700468320385    1.68638715881823    0.92025712106006
O          -1.34750807014414    0.69913041173625   -1.60185919895234
H           0.06967578196946    1.14699231396748   -1.45271752033721
H          -1.28113027885602   -0.27297975779774   -1.57984121255720
H          -1.82062997223720    0.98059348631515   -0.78927218517860
O           1.82978003776081   -1.12737579192654   -2.31170441521122
H           0.30787141004366   -1.69394777584143   -1.92244489492701
H           1.70764322448457   -0.16558277166126   -2.26824772469604
H           2.45066276605828   -1.33359540594247   -1.60560790664888
O           0.50669252010932   -1.72170148391504    0.95433211391970
H           1.49824610973026   -0.71068944255716    0.59429644848153
H          -0.08913355702959   -1.30262847674588    1.63642910101132
H          -0.03170421401222   -1.88372778905479    0.16104086160682
N          -0.98571307405158   -0.37838850667115    2.69459666570017
H          -1.05069585953510   -0.59124488652641    3.68134316955963
H          -1.91070716873842   -0.14109489653862    2.35618793092344
H          -0.40698507013390    0.44838825606571    2.58035525154215
