    26
        -50.45011624  Gyration_radius:  2.45259871788 Dipole_moment: 5.256
 S           1.51746823317670    1.38848817664047    0.49569087437421
O           0.74105834180376    1.95355762614163   -0.73151743239542
O           2.21293224522671    0.14305130019286   -0.08368615369779
O           2.48940027370508    2.33279639422674    0.90147477163817
O           0.54725213710757    0.96475232430707    1.48279203544500
O          -0.77696472253957   -1.07784912762227   -2.16111995289736
H          -1.16168098623313   -1.54466391489952   -2.90400896187898
O          -2.09144347419134    0.89884426866831    1.73908186130553
H          -1.11130267585141    0.93233261867870    1.75874054639189
H          -2.39591147847660    1.71409770535436    2.14115596515348
O          -1.65026261657845    1.16525771795191   -0.88796016937993
H          -1.53715484660465    0.30194104201647   -1.32582628561169
H          -1.97757383147543    0.99378315529275    0.02134302952742
H          -0.25154487587902    1.67263419588403   -0.75457483124280
O           1.42071057099710    0.25837871003986   -2.80689313502823
H           0.02408623746179   -0.60724557577690   -2.50841388304511
H           1.26510907028838    1.07663230198806   -2.30878403303091
H           2.16993304219289   -0.16142806928929   -2.37209890668339
O           0.75153831097981   -1.88838048471418   -0.02926819445051
H           0.08400148293038   -1.74568985944192   -0.72172527867291
H           1.61272112431074   -0.70808163997864   -0.02155872868290
H           0.27336004856004   -1.89485094376237    0.84665185163564
N          -0.45303816903247   -1.65845747962580    2.32792026277280
H          -0.32493311467747   -2.29483125246138    3.10369171821081
H          -1.43440429107665   -1.41264674329404    2.27361663133715
H           0.05664393387541   -0.80242246652101    2.52527642890928
