    26
        -50.45011624  Gyration_radius:  2.45258719195 Dipole_moment: 5.255
 S          -1.80758910262310   -0.61002160623467   -0.91465212259981
O          -0.94358686605254    0.36097594356339   -1.55174887373452
O          -2.15974305636418   -0.11000045713016    0.49829297346033
O          -2.98942027883572   -0.97830049206194   -1.59922968681506
O          -0.96589379071281   -1.88989119432992   -0.62897673161637
O           1.29455249945935   -0.76005810949929    2.04507886871837
H           1.87151260682107   -0.95518786817398    2.78460055694161
O           1.58747057336434    0.52694256203187   -2.32567794507879
H           0.62753182065695    0.53917650401911   -2.12432702933575
H           1.66807445777968    0.21917650639924   -3.22999949411554
O          -0.37386313317979    1.34520220077374    1.47727519842662
H          -1.42943234836038    0.52748573761519    0.88403096620984
H           0.35644025552475    0.74357661728716    1.70132544279098
H          -0.04729641730354    1.95188444650637    0.75530871908532
O          -0.98319503355303   -2.11563859239972    2.12621743781051
H          -1.06265431625178   -2.35508828228637    1.18908701252741
H           0.48502247115605   -1.32070694205009    2.16379644965755
H          -1.70055081975042   -1.49453808124216    2.28824523401501
O           1.52444078804692   -1.49129122081291   -0.56794245295520
H           1.73031705269446   -0.74017977202034   -1.16528917791295
H           1.64403773878063   -1.17844896460548    0.34730018559877
H           0.05261719595397   -1.72818884793579   -0.66408052047367
N           0.37980865350461    2.80267533729441   -0.61272060846520
H          -0.30448992849741    2.34096869536584   -1.20440374453091
H           1.29461188345809    2.56666965438189   -0.97863758458669
H           0.25127711428500    3.80280623554604   -0.69287307302251
