    26
        -50.46954175  Gyration_radius:  2.39854655636 Dipole_moment: 4.983
 S           1.38094061531812   -0.19062499512179    0.76685557029745
O           0.23165142595669   -1.07394620507850    1.05598721246935
O           2.26791020792886   -0.98666428829443   -0.24063841062002
O           0.92113171127275    1.01877322441955    0.08028154111349
O           2.13356432495407    0.10262542422783    1.95526545097846
O          -1.16257446370067   -0.79010936930543   -2.43955286488718
H          -1.64629364255530   -1.15913910734532   -3.17954268081068
O          -1.61056128461758    1.32028297900327   -0.65239195364179
H          -0.64787684014126    1.36413477512005   -0.47026092187493
H          -1.69162802911363    0.61513754738654   -1.31355794859598
O           0.47935571951268    2.01071142820853    2.71622036270249
H           0.68142432523484    2.65610518019682    2.03336516424387
H          -0.91387572510737    1.25860087190838    2.31710401182252
H           1.16251941620396    1.31059694636057    2.59688126101752
O           1.41612584310365    0.19586064486983   -2.38817542248992
H           1.28215792506528    0.90307049115580   -1.73712941852527
H           2.04985078153633   -0.62748587732789   -1.14518395465363
H           0.51988308651005   -0.12839291432111   -2.59398338471238
O          -0.08670663797473   -2.69955195686077   -0.97264766555154
H           0.81288564184319   -2.92854165834350   -1.21796850910283
H          -0.00184841518188   -2.18633887764096   -0.13723701820610
H          -0.84347029903953   -1.55760215431847   -1.89946768248615
N          -1.57467477083657    0.56932560278029    1.86193306573207
H          -2.35609448988418    0.32089770237429    2.45761828545587
H          -0.94090572013905   -0.25654787683807    1.63332408341039
H          -1.86289070620958    0.93882247286514    0.91290183698710
