    26
        -50.45011627  Gyration_radius:  2.45258432158 Dipole_moment: 5.255
 S           1.44272975577255   -0.78332956040072    1.33429223460711
O           2.20579507043880   -0.20887884603182    0.12671798366164
O           0.47121401601977    0.19270755954919    1.78009915556352
O           0.66868038045786   -1.98536820572165    0.71460251430329
O           2.36224946687320   -1.27129511655581    2.29211071003509
O          -0.68085542313913   -0.53360585738707   -2.38486131075352
H          -1.02822722882151   -0.64062526160033   -3.27125847615867
O          -2.16689192274582    0.46064944624233    1.81645930964890
H          -2.51601820315614    0.09549951068448    2.63117086017329
H          -1.18986653279375    0.42759956006279    1.89721183795870
O          -1.68107540752230   -1.42965699457423   -0.01604096706468
H          -1.52008059451773   -1.04691284526260   -0.89777903140896
H          -0.30973429410820   -1.76366663302473    0.47304818541036
H          -2.01992798030918   -0.71067536715910    0.55983788470792
O           0.83550088723920    1.41935204437344   -1.19115748295389
H           1.64289020651137    0.49811950164283   -0.39460125910788
H           0.17731027554291    0.88141594698532   -1.66322061675643
H           0.33939801542025    1.99316512403812   -0.54264920186374
O           1.46845751351110   -2.01932351125947   -1.93141065676194
H           1.26573000584837   -2.32774533940037   -1.03384285737665
H           0.10568834864486   -1.13386970537929   -2.31613440353014
H           2.22621355255938   -1.43430748642876   -1.83062268696809
N          -0.42882895472696    2.77141913658874    0.71501629769690
H          -0.28940417950998    3.75364274463498    0.91245288059596
H           0.03780256746136    2.22809386675075    1.43513461532915
H          -1.41874935094986    2.56759626863321    0.78542448101338
