    26
        -50.46954182  Gyration_radius:  2.39864341073 Dipole_moment: 4.983
 S          -0.88739396578300   -0.66134471023689   -1.14305200949311
O          -1.23944698777634   -0.64590251709920   -2.53608594637710
O           0.54862555199278   -0.85452049658028   -0.92880434168174
O          -1.33902847815380    0.56634796769009   -0.45497367522971
O          -1.62539010598212   -1.83186366473679   -0.42166047816249
O           0.41795865342141   -0.31399225685350    2.76714080233199
H           0.47700219974390   -0.28508180174180    3.72291733292282
O           1.93996746361281    0.74453346645704    0.66648681298451
H           1.57936454649552    0.05857345191215    0.06547779532104
H           1.53300017249406    0.54233297442043    1.52345550074862
O           0.34677213416979   -2.52575622558390    1.11601087480045
H          -0.96878023151264   -2.21783285718048    0.22231393529281
H           0.83618095820350   -2.15490085441074    0.36439675137325
H           0.44173915064460   -1.86549954176701    1.82723815824163
O           0.83223662597644    0.84443500263399   -3.20148831833149
H           0.78274651178536    1.86252586478320   -1.92561555620820
H           1.52814379743213    0.19961948058664   -3.04800575973992
H          -0.00131042549751    0.32577023868373   -3.11586116888690
O          -2.08537889367147   -0.07746339089747    1.97144059853532
H          -1.89985035138161    0.24837997964226    1.06151238051872
H          -2.54346588288423   -0.91243635440163    1.84948460534260
H          -0.53310037456317   -0.15456242345887    2.53777522078690
N           0.54016631850028    2.24461614006831   -0.96962576195845
H           0.43105757165983    3.25220001636762   -0.96433123987962
H           1.24408177407867    1.88855552201038   -0.26378637370684
H          -0.35589771306584    1.72326695963741   -0.72236011954048
