    26
        -50.46954158  Gyration_radius:  2.39889969893 Dipole_moment: 4.981
 S          -1.41798504949469    0.56553355077740    0.44929589965755
O          -2.52300412283760    0.42504496252990    1.35697633852871
O          -1.32483501848588   -0.58392853303770   -0.47530725237830
O          -1.63724033925953    1.81142980616537   -0.46447047674363
O          -0.14160289985743    0.75346806373908    1.14261139566400
O           1.95624505760238    0.56637826303403   -1.94511483418229
H           2.56896661311444    0.62360912377229   -2.67934723232509
O           1.99083371555684   -0.70881469875553    0.54875241623756
H           2.15829268355684   -0.41956458607601   -0.36186660566932
H           1.31638436995971   -0.07712506880557    0.87727147070348
O          -1.18562083470077   -1.16118788311483    2.98488536980631
H          -0.42468917708021   -2.04924452164096    1.84490291507879
H          -0.56484746424701   -0.51828853630972    3.33839058666369
H          -1.82654610885899   -0.62018660365483    2.46731103994340
O           0.83106954262165    2.61402264969071   -0.47240548838090
H          -0.74449192926639    2.24545453144444   -0.55998767771341
H           0.79760375872106    2.16496639719812    0.38736557825852
H           1.35548825474042    2.02322144032407   -1.04378404479899
O          -0.52212588809988    0.29900756394843   -2.80670178028573
H          -0.89570410910297   -0.11449420662975   -1.99558011585528
H          -0.99850063782723    1.12650673688224   -2.90758692228896
H           1.06045681919855    0.40269379422216   -2.33671360973875
N          -0.03907829465273   -2.33391272205287    0.90210059927578
H          -0.63838451202641   -1.77663422324887    0.21929630152363
H          -0.08013928318189   -3.33443266376399    0.74590286056158
H           0.92945483394695   -1.92352263663925    0.78380327847507
