    26
        -50.46954183  Gyration_radius:  2.39868988024 Dipole_moment: 4.982
 S           1.20881322500833    0.43863113398044   -0.93681439922479
O           1.71488930668276    0.49225058973746   -2.28059984235173
O           2.21196917279536    1.13237338381416    0.03652534240367
O          -0.07905603072175    1.12143793037985   -0.79392119988427
O           1.09754113706567   -0.95385902902772   -0.45365622162045
O          -0.64487954251311    0.04753458693454    2.74062406037021
H          -0.83753440648182   -0.09376675783460    3.66837448078369
O          -2.14865768750437   -0.05306598559566    0.37857046251512
H          -1.49049224639429    0.52713437530619   -0.05969444948689
H          -1.81482080915071   -0.14278136655723    1.28482943979677
O          -0.64263757634900   -0.00504575001033   -3.35297669159899
H          -1.12958703079500   -1.13945581949457   -2.28392967753944
H          -1.07747931771585    0.82386624071167   -3.13505591160279
H           0.30144044401055    0.14709403423306   -3.11455060179761
O           1.69277138270198   -0.99011100312136    2.09661746062275
H           2.43023089231682   -0.37873281414239    2.16215128915155
H           0.20874670530511   -0.42074046460882    2.55479351095305
H           1.52686134478764   -1.08905938403934    1.13160969899965
O           0.42989050604510    2.28464864873393    1.53064212608133
H           1.65635029697776    1.63898649359028    0.69177548442047
H          -0.05433923537089    2.23577758772415    0.69098225546815
H           0.01178707872086    1.61313886718882    2.10072969314955
N          -1.16901967788157   -1.71691123282040   -1.39863691719337
H          -0.18765384616752   -1.60903483312950   -0.99701668467124
H          -1.42752424100293   -2.68191494903801   -1.56917124765228
H          -1.78760985436861   -1.22839450286192   -0.69220146008532
