    26
        -50.46954176  Gyration_radius:  2.39870481991 Dipole_moment: 4.985
 S           1.43685430663209    0.18728449942963    0.65826304679590
O           0.30163315997101   -0.31575807887541    1.46016566044537
O           2.66925063496023   -0.45204215650619    1.02862057399408
O           1.13963353875658    0.04995056980934   -0.76932744427389
O           1.51601943199075    1.71418583332406    0.97053306041191
O          -2.26497352445810    1.57705228714381   -0.56081699506843
H          -3.10462127680775    2.03319835679709   -0.62912912658625
O          -1.22593388387158   -0.79989521483781   -1.61833802324103
H          -0.31690215534788   -0.45876997868911   -1.48034722341960
H          -1.79606078494889   -0.07518176519879   -1.31695909262376
O          -1.33771304307276    1.67742743719162    1.90617838974527
H          -0.74885203028366    2.41588754173528    2.07887254508095
H          -2.00946213913131    1.59731236339007    0.39673776946937
H          -0.75145836287283    0.88861914434947    1.85505566332238
O           0.26189216340756    2.51903322933594   -1.15470526702937
H           0.64560830788213    1.69041371150052   -1.48346115426048
H          -0.68950969836356    2.33164734671529   -1.05248756022206
H           1.06354747497899    2.17591014673141    0.21116527874936
O           2.18612577811479   -2.58314250822676   -0.44821650254637
H           0.59540689620718   -2.72447164566202   -0.10702953399339
H           2.27538580809893   -2.17970204374143   -1.31587695787635
H           2.49541057689694   -1.88582136886987    0.17567842992477
N          -0.37574877161581   -2.46563411803362    0.22256447498024
H          -0.90308783100480   -2.00945396112479   -0.57384672815263
H          -0.19402004954367   -1.66420178003488    0.90126453549686
H          -0.86842454655217   -3.24384783760673    0.64544217086840
