    26
        -50.46954168  Gyration_radius:  2.39874975097 Dipole_moment: 4.989
 S          -0.54346139008697    1.01549591743494    1.09842154448907
O           0.51130409509977    0.03639125094222    1.43546257670488
O          -1.87644338128190    0.36852508948012    1.58826865410382
O          -0.33358250634290    2.26938477109375    1.76814097536339
O          -0.64069368704576    1.16460955118736   -0.35531554246783
O          -0.72057609413251   -2.50177840719732   -1.07362390060723
H          -0.83704979219377   -3.41008544123010   -1.35495679592918
O           0.79586742963042   -0.33826686257462   -2.00365549902663
H           0.42105011757604   -1.21403344864748   -1.82034606409896
H           0.18711893087386    0.27974106109356   -1.54624180197326
O          -0.58136647412837   -2.34078155128042    1.55516925776259
H          -1.42290671440308   -2.17767250031959    1.98772333094820
H          -0.61163367003612   -2.52267964328647   -0.08866276825593
H          -0.09712359715743   -1.48552335360721    1.60586477017830
O          -2.63357881285861   -0.54108654242135   -0.72185855988329
H          -2.30241981449437   -0.03313224601690    0.78094159990223
H          -2.10318096131838    0.22207261068030   -1.00149502114396
H          -2.09262005030049   -1.31950209339272   -0.94999576618224
O           1.42434415042385    3.10243469555999   -0.01245299152217
H           2.21278445921835    1.68664680688626   -0.21539746673635
H           0.82825476040976    3.22812803610159   -0.75578255461542
H           0.82592243834597    2.92673858733401    0.75058311188016
N           2.41118015060222    0.64818441087100   -0.18608219395422
H           2.00886504105279    0.19270872999355   -1.05272894735269
H           1.77914108030650    0.30466385416302    0.60023608358203
H           3.39080426224923    0.43881672713924   -0.03221603116564
