    26
        -50.45300979  Gyration_radius:  2.4348637371 Dipole_moment: 5.194
 S           1.64843666651492    0.81182746519050    1.00616470738861
O           2.27992139051625    0.06840365746699   -0.18195423743574
O           0.69824327152497   -0.22259014149940    1.65097573559686
O           2.64560771322267    1.20038836567641    1.93082387319335
O           0.82527830659298    1.88605227823827    0.47120156966446
O          -1.04663444512454   -0.05862955819704   -2.07452851996939
H          -1.68838257398452    0.08745741634682   -2.77048570586808
O          -1.68793765797137    2.53197619154601    1.12099436679501
H          -0.75139031639964    2.48942445887016    0.84574564662312
H          -1.69495906518516    2.93277002178072    1.99139258165387
O          -1.60362984877715   -0.08081762168612    0.58733356478797
H          -1.48793598496803   -0.08686169881857   -0.38410811546086
H          -0.22984928794669   -0.17931678579963    1.21659856801515
H          -1.84912143556328    0.84273794404271    0.81292381190836
O           0.91240991627580    1.67957120509185   -2.15906044211634
H           0.88783113472194    1.92554473179091   -1.21036778970452
H           1.75736171767753    1.23922502299194   -2.28318231306940
H          -0.35087524680478    0.64581903327451   -2.17868328221577
O           0.83195852844170   -1.77928401575865   -1.05574871359257
H           1.69657254320105   -0.72126733544293   -0.53251693450747
H           0.39532997162686   -2.25313306232117   -0.29472448958423
H           0.11767987441728   -1.33725767633128   -1.54390574315906
N          -0.44901008302187   -2.86590558894246    1.02513215037069
H           0.11855231719933   -2.56513973157783    1.80835450188502
H          -0.65972670444945   -3.84905234192919    1.13739755012363
H          -1.31573067173668   -2.34194224400112    1.06422765867713
