    26
        -50.46954185  Gyration_radius:  2.39865614695 Dipole_moment: 4.980
 S          -1.14191588947620    0.69516942315239   -0.86269051561108
O          -1.61984383072982    0.99548800110466   -2.18407851231807
O           0.20862585765476    1.20913847391979   -0.62342471826298
O          -2.08041376638402    1.34432391411448    0.20165365573640
O          -1.18517473276974   -0.75624468575918   -0.58648808224176
O           0.60553152302664   -0.41713581369380    2.71830215958401
H           0.76782307259551   -0.70954857399915    3.61607959008334
O           2.12511602309519   -0.33566381233998    0.36595233292499
H           1.53836727465685    0.36831385714711    0.01669730281033
H           1.77028849841544   -0.51887080556355    1.24991764038350
O          -1.81849955555350   -1.09626707739766    1.93193081316823
H          -2.48827021558311   -0.42571973455472    2.08580156424984
H          -1.64964419858675   -1.07218123314392    0.96266311077955
H          -0.28980381432290   -0.76015307548026    2.46691370655083
O           0.68808504757566    0.41035203321607   -3.31859962677757
H           1.03700797608872   -0.91175875264238   -2.42563744641033
H          -0.23823198972591    0.62588193500456   -3.06038503833017
H           1.20422471141436    1.14810799032369   -2.98249097597059
O          -0.20875409962193    2.07267685358254    1.84544264666902
H           0.12770144826274    1.28531374515264    2.31192905221624
H           0.27965052422986    2.09366022450324    1.00697976338289
H          -1.48424286603293    1.68906127892081    0.92304873304419
N           1.00223099916512   -1.61173963833254   -1.63347742333681
H           1.65832629338400   -1.29905883848442   -0.86404160177509
H           1.15995643334673   -2.56409355485802   -1.94216685890794
H           0.03185928585616   -1.45905213387990   -1.21983127164809
