    26
        -50.46954181  Gyration_radius:  2.39865863148 Dipole_moment: 4.984
 S          -1.56319134366024   -0.07432423728329    0.28719378762835
O          -2.21772021516601    0.42133521686857   -1.03986631160624
O          -2.58303253403411   -0.36147788550172    1.25776512936436
O          -0.80714732594561   -1.28959923482713   -0.08177910147332
O          -0.64049447114248    0.97153047692704    0.73443749398123
O           1.70234408744106    0.61946941631631   -2.15553158614000
H           2.30931580637418    0.67198104615981   -2.89489661664974
O           1.98931822102831    0.63811489722906    0.63128954792078
H           2.12593697441503    0.58214504901611   -0.32748453784972
H           1.05741733365021    0.93040629268144    0.72058766332267
O          -0.45305814219202    2.24637213381771   -1.57971923621700
H           0.36301289828058    1.81544295432122   -1.89441456789520
H          -1.63457353946545    1.15610422019129   -1.37849631141595
H          -0.38919395274243    2.22514305684427   -0.61151382027523
O          -0.20287442104668   -1.14264968725581   -2.62586679910128
H          -0.44461343671686   -1.32233610471874   -1.68897217123785
H          -0.99562627901424   -0.77365041077823   -3.02242927913397
H           1.05688097925462   -0.10144422277057   -2.37040721332158
O          -0.89449273040030   -0.28411587005457    3.28227401096498
H           0.34474178037177   -1.06231261758956    2.55758781904025
H          -0.70589719430630    0.65823335469673    3.27655641660227
H          -1.63718059224418   -0.38610799486863    2.64252108633501
N           0.94636283336469   -1.47254970685968    1.79042126763384
H           0.25676928666933   -1.60448709995984    0.98863329422156
H           1.40642009805475   -2.33197696106618    2.06768537017672
H           1.61057588919645   -0.72924608153160    1.43442466512161
