    26
        -50.46954182  Gyration_radius:  2.39876737667 Dipole_moment: 4.983
 S          -0.60278583481378   -0.49726163484654   -1.38697134773475
O          -0.21748995999352    0.63018606532223   -2.39476281750951
O           0.63583973393413   -0.95886193001623   -0.75596990650471
O          -1.46663505053363    0.15751402775050   -0.38209991502670
O          -1.29721827784924   -1.55092993304632   -2.07409497625268
O           1.34517839800846    2.26112079424242    1.00520980502469
H           1.66432642446528    3.06505470391580    1.41726865481671
O           1.18165489197258   -0.42476996629897    1.78495667104822
H           1.14725700739497   -0.69214230690475    0.84205784069651
H           1.26745878812947    0.54088912986050    1.75144797223153
O           2.12274487272967    1.13780753326679   -1.39403909041438
H           2.02768808094328    0.20368332228748   -1.14824034955247
H           0.69540515288283    0.93499870233411   -2.13341196959619
H           2.01165459578446    1.62927785125441   -0.55922762344212
O          -0.88333102478504    2.71010686074967   -0.33180595966441
H          -0.75376623904806    2.92759801431879   -1.25797132928619
H          -1.22212207730204    1.78611937643504   -0.33044533350893
H           0.47881155240956    2.48634055747487    0.57943232729469
O          -0.88003822476575   -3.29568750208721   -0.14067339009566
H          -1.15264548882558   -2.76289786798987   -0.92359212742546
H           0.06821431410040   -3.40762868753418   -0.25010895972512
H          -1.14006277400599   -2.28855023049180    1.11869369804771
N          -1.25596372229359   -1.38853240232057    1.66184848255338
H          -1.94339636243290   -1.46142996323716    2.40296244919373
H          -1.52410780250935   -0.68518226579446    0.90718984363420
H          -0.30667097352237   -1.05682223852793    1.99234734120274
