    26
        -50.46954186  Gyration_radius:  2.39865371625 Dipole_moment: 4.984
 S           0.98202630958731    0.74203243059791   -1.00792614830927
O          -0.34674984066656    1.19427084248178   -0.58937541661729
O           1.50111604720307   -0.25444325802953   -0.04754414339913
O           0.80579470568538   -0.03384431856218   -2.35041107413079
O           1.90287441917263    1.83002456345293   -1.18949857227370
O          -1.70961251923637   -2.23740963141357   -0.01299894576504
H          -2.17957944349524   -3.06796312429239    0.07164982317513
O          -1.58320545412547    0.11945524138315    1.49701079121204
H          -1.72005249508825   -0.78638743745997    1.17827364014952
H          -1.28090510249948    0.60707593576252    0.70154364894735
O           1.09999637708539    3.07566281680011    0.99226155715150
H           1.53590622137359    2.72379581690070    0.18151303563502
H           0.22440492995608    3.33744993698847    0.69474494671772
H           0.94888167165529    1.75969571004601    1.94813880143682
O           0.75926522511923   -2.63427357267221   -0.85139507520523
H           0.86621769801791   -2.59069552674003   -1.80457105900487
H           1.14577000880138   -1.79549963183120   -0.51151988737813
H          -0.77831752506051   -2.46405435657813   -0.26551165713632
O          -1.74512561530140   -0.45401577672498   -2.12043678552348
H          -1.65894965958691    0.36736471481239   -1.61079002681385
H          -0.16194458391880   -0.26734722808881   -2.41020923528725
H          -1.89266672856104   -1.14919111935259   -1.45282036362435
N           0.85668126377904    0.74521522399250    2.23237371730718
H           1.26935417465058    0.22341391391917    1.39966327831899
H          -0.16614191782245    0.47264783661908    2.22109483368676
H           1.32496181321665    0.53702000797490    3.10674033670476
