    26
        -50.46954183  Gyration_radius:  2.39870396894 Dipole_moment: 4.984
 S           1.10692098367491    0.48635382521334    1.03479366379151
O           0.38175697757176    1.32005972022481    0.07328741195450
O           1.36085393902268    1.16794261690685    2.27401144625705
O           0.37957715100680   -0.78203215151755    1.25150270694674
O           2.45701547307629    0.07717654141603    0.36771575491643
O          -0.10969192457865   -1.40157289576383   -2.44042724363195
H          -0.20384934116657   -1.99912786479791   -3.18334208136127
O          -1.79331210791920    0.43823121187669   -1.16335589106317
H          -1.41866731619474   -0.28124649504177   -1.69520862655405
H          -1.00670903681160    0.90847433683135   -0.81411912189362
O          -1.05428258671611    2.22363536474796    2.36563959164858
H          -0.97015694828844    2.83875916623862    1.63200414777081
H          -1.88142253611022    0.91383651271177    1.84836238313210
H          -0.13999433039662    1.88157190441900    2.50055413125445
O           1.75447693387165    0.60234819007944   -2.07512363889553
H           1.19206194880781    1.23046450554492   -1.59441272643268
H           2.34138313427377    0.23417762105356   -0.61028893339682
H           1.14514355514520   -0.09215315363758   -2.38679059069975
O           1.25076736892108   -2.53667099278242   -0.48677606868555
H           0.91426472553181   -1.97422104313627    0.24732312256729
H           0.34917218259775   -1.91091601847483   -1.72453508165907
H           2.19637390242080   -2.37255024940745   -0.51445051928850
N          -2.07374803011702   -0.02647642935982    1.40398051460701
H          -1.12556009018151   -0.51123169829355    1.44655641617965
H          -2.24425383118091    0.10713100836774    0.36782801616087
H          -2.80812020630024   -0.54196353342611    1.87527123637305
