    26
        -50.46954166  Gyration_radius:  2.39867899558 Dipole_moment: 4.985
 S          -1.47778451736388    0.20830462216976    0.55266639383191
O          -0.70528964357628   -1.00032792698465    0.90932268477052
O          -2.28524606888368    0.66219039206402    1.65118424964795
O          -0.57581395404503    1.24778516835559    0.05141389261981
O          -2.39234606258651   -0.22421457006233   -0.63549988573146
O           1.24280111679945   -0.98948526504011   -2.32589974019599
H           1.70541813872383   -1.45389505413073   -3.02449654040552
O           2.01295866088755    0.78630476874032   -0.30098991538881
H           1.98288352693626    0.12462553751530   -1.00976097934979
H           1.09139536892971    1.11733679117870   -0.24735655763784
O          -0.56967063192259   -2.54198673858145   -1.20339682533440
H          -0.62825254750505   -2.06941230465506   -0.34206709665526
H          -1.44642388589301   -2.47016206565415   -1.58815226713163
H           0.62856339104109   -1.64610934980418   -1.90852240072958
O          -0.27795649408857    1.92599933320412    2.80441515761408
H          -1.11138388570177    1.47825041822659    2.52863827393960
H           0.87162809079289    0.79944223693143    2.52783194585845
H          -0.16797579615283    2.63440382726159    2.16428155931581
O          -0.90021486602871    0.74055276777523   -2.52781318873126
H          -0.66520544918773    1.33837091941833   -1.80027285380132
H          -0.12076083817478    0.16602776887469   -2.64200331966703
H          -1.93813250265280    0.09339605415859   -1.46457018301290
N           1.35892575551071   -0.03779598620275    2.10317935017325
H           0.55154769709759   -0.61483760690536    1.71441635080991
H           1.92650627620261   -0.54437728502786    2.77283320768981
H           1.88982911086284    0.26961357718098    1.24061869748723
