    26
        -50.46954173  Gyration_radius:  2.39865031034 Dipole_moment: 4.986
 S           0.96074348048101   -1.01091432584736   -0.76590041457299
O           1.42028454485123   -0.31490955818009    0.45436365934918
O           0.49253833185482   -2.41947575838985   -0.28408577006943
O          -0.21128546097780   -0.32852048213358   -1.31903356362047
O           2.02128002250405   -1.15000343289634   -1.72538823886243
O          -2.04991985151304   -0.11765894674076    1.92727162225654
H          -2.63697770174034   -0.09499960549653    2.68399361040343
O          -1.34342299862086    1.71822498137146   -0.06713396865147
H          -1.06441589824844    0.97631393223834   -0.64467853382067
H          -1.66910223642507    1.28038042785233    0.73489398385766
O           1.71362501341695    1.30054055334606   -2.65052581655752
H           0.86391298056417    1.18485808193305   -3.08444814072316
H           1.46378182189700    2.04100186392676   -1.21672796053431
H           1.98120072154782    0.38704244444374   -2.39524588927386
O           0.19503442425303   -1.37133456482498    2.51384847928930
H           0.18964064212215   -2.31011259642972    2.31250160520106
H           0.75589823716619   -0.96269770619177    1.81598745993106
H          -1.20814757356612   -0.54114977693604    2.23493172450077
O          -2.04469821268557   -1.87827640642547   -0.20002196635097
H          -0.50055143593757   -2.36977237402427   -0.20731905572867
H          -2.22428024837505   -1.31853662833686    0.57789903023362
H          -1.75856065294523   -1.26018002225616   -0.89145021435638
N           1.23896479943880    2.16780393188438   -0.19095534728075
H           1.77052935091246    2.91604454081399    0.23890756016451
H           1.45230025731058    1.20894590515350    0.22251879467215
H           0.19162763271478    2.26738552215710   -0.07420265947105
