    26
        -50.46972949  Gyration_radius:  2.43093648507 Dipole_moment: 5.125
 S          -0.49942575928791    1.48134166082639   -0.15363209909390
O          -0.88908489786459   -0.04787343477648   -0.32948156475739
O          -1.13406745726924    2.13987219226887   -1.26501378854322
O          -0.93825603688919    1.88811848532072    1.16001359654286
O           0.97377519048008    1.49395400185360   -0.25978520374441
O           1.52592871569761    0.90468926070814    2.25173824075158
H           0.88617566591515    1.43891392978455    2.73135264451831
H           1.47205039722764    1.22768255714819    1.32857043646898
O           0.98273803868809   -2.57147261052196   -0.56004694644531
H           0.18746054578517   -3.06068191001059   -0.77910032072149
H           0.84189201257229   -2.22869491217988    0.34068460257562
O          -1.89747119591668    0.03622929463870    2.79329157732272
H          -2.84585571496697    0.14240538690189    2.87034258961170
H          -1.58574391696084    0.78502814990473    2.23808449871903
O          -0.90958193009681    0.41314263700247   -3.18309395398611
H           0.48962305951098   -0.14423739726944   -2.62362363267024
H          -1.65995175573648   -0.15922798575818   -3.01030353771506
H          -1.02138328992267    1.16922106647389   -2.54774632188824
O           0.16922697197028   -1.27960262587291    1.71510785923168
H          -0.60298036192683   -1.13968075580025    2.29144512095294
H          -0.51869719940162   -0.53352598074304    0.45664609849583
H           0.81143853163313   -0.57902185719810    2.00274305293322
N           1.35530370802759   -0.32204048683416   -2.03707019110358
H           1.33482527814059    0.46352396295493   -1.30631434604701
H           2.20205328776772   -0.28450818870180   -2.59450747424314
H           1.27000809282415   -1.23355447011160   -1.53030092714335
