    26
        -50.46954176  Gyration_radius:  2.39864318062 Dipole_moment: 4.978
 S           0.94528553785364   -1.18608120658720   -0.47898157695404
O           2.34413499921053   -0.51440257224544   -0.64316575462228
O           0.60210477376708   -1.02695678166379    0.94989483833298
O           0.00072873058175   -0.43201566398377   -1.30644632772206
O           1.02100845221142   -2.57153029953260   -0.85237283723947
O           0.24385236361360    2.71996504195842    0.68679335504004
H           0.30790268608377    3.59596938753465    1.06942772067336
O          -1.86388420688744    1.11303228070910   -0.22310669084469
H          -1.23286857757486    0.60997585344945   -0.78046712447244
H          -1.31330188531204    1.78918325830478    0.20177939474237
O           1.89913724844090    1.04937212175677    1.88086079536082
H           1.43128618680066    0.21639793090901    1.64476784932559
H           2.76130177738837    0.97861904955367    1.46423317619084
H           0.83830161504881    2.13411910063038    1.22149129739253
O          -1.59017606925117   -2.79325278393999   -1.15123850566362
H          -1.69128654366231   -2.24659324934509   -1.93519333239807
H          -0.61487526241115   -2.88844029492115   -1.04701282305040
H          -2.02967372429828   -1.91060434375838    0.15049602340389
O           1.48177103762740    1.74662233430870   -1.58086906966623
H           0.77508645934710    1.15409504620664   -1.88321452584065
H           1.08432780901261    2.25998428213955   -0.85332814190833
H           2.17221137880775    0.39517004363050   -1.01453986117853
N          -1.96139493830388   -1.22919375373100    0.95658118676424
H          -2.18020978898712   -0.25427253470267    0.60749487593834
H          -0.91524540717245   -1.19941487223495    1.15868406100571
H          -2.51552464194000   -1.50974738444866    1.75743202737936
