    26
        -50.46954175  Gyration_radius:  2.39864672399 Dipole_moment: 4.983
 S           0.00567997446252   -1.54507382491461    0.37977832637926
O           1.13250282198480   -0.67107613730634    0.76846223401093
O          -0.27797507196194   -2.52313454722672    1.39348795496627
O          -1.16418970255573   -0.73125415473524    0.04148480447006
O           0.46977826935703   -2.25637727792980   -0.92937714073189
O           0.68644781665635    1.61419327553697   -2.20352601084367
H           1.04708365410339    2.20746160523864   -2.86363314206903
O          -1.03997338877423    1.91815616367959   -0.01834412915299
H          -1.25370801832598    0.96193059708072   -0.06030001386779
H          -0.42465186272405    2.05283771602699   -0.75609714250176
O          -0.78353592431374   -0.69310175609965   -2.57932543344847
H          -1.35878742498518   -0.62015680771843   -1.80104893871512
H          -0.31492978062512    0.16066495807132   -2.62563751262911
H           0.04859726311437   -1.75466667361926   -1.68137671826120
O           2.51226530615828   -0.10362166825377   -1.38415824292948
H           1.43681138756135    1.04449609237945   -1.89537327101963
H           2.10489977405973   -0.31859373205706   -0.51446094746295
H           2.52186504448133   -0.93308643850271   -1.86767146370484
O          -1.69940848275729   -0.83670917957819    2.83984498571086
H          -0.73911926505691    0.47030637284351    2.64989113520581
H          -2.45474004565172   -0.74544403308532    2.25266700091584
H          -1.17281527420263   -1.56977188353474    2.44427033011190
N           0.00504359178839    1.10514059068786    2.24736160621051
H           0.64959907356825    0.42697426860239    1.73690268738700
H           0.48063049217043    1.65260393465261    2.95537331707389
H          -0.41737022751893    1.68730253974813    1.47080573487231
