    26
        -50.46954181  Gyration_radius:  2.39866455944 Dipole_moment: 4.983
 S          -0.75659064404688    1.35275050420090   -0.36033996098522
O          -1.37193789745618    0.05038677170156   -0.09472240319808
O           0.61809589741523    1.38083997953847    0.18197693791380
O          -0.59101019080672    1.48049614319003   -1.90676414498928
O          -1.54366070786845    2.44624209048459    0.13925404862980
O           1.53013736520718   -1.95681477274306   -1.32603366194685
H           2.17611786975064   -2.55665729820811   -1.70117084827230
O          -0.00204663990538   -1.92983796611383    1.01910241445262
H          -0.64007237401971   -1.32116729983716    0.58985304783608
H           0.65607768065582   -2.10432201495481    0.32813856178312
O          -0.82657760670733   -1.04815752020627   -2.44221373139289
H          -0.00689391829569   -1.50581668601406   -2.17888889108561
H          -1.35414556208655   -0.99355459016481   -1.62940705837373
H          -0.66677714225437    0.55504916328498   -2.27071782236366
O           2.25695648862356    0.55287848280456   -1.68571282936097
H           1.73327852197738    0.94422897932383   -0.95011910416117
H           1.89556027461662   -1.04219942934968   -1.43781843696566
H           1.90763581574653    0.95658662340837   -2.48375210154865
O          -2.09526154729737    1.21512333788217    2.40550282042882
H          -2.67248959307627    0.52919177329656    2.05921835568957
H          -0.61910885039287    0.56573545788454    2.66168358914320
H          -1.95228493116840    1.81970896059910    1.64056806262799
N           0.36415118375450    0.22809108135513    2.46671199717790
H           0.32610090204999   -0.77030209126666    2.11716767772460
H           0.98969985179690    0.36166280629092    3.25283576143235
H           0.64504573377966    0.78985754360013    1.60564771982561
