    26
        -50.45300981  Gyration_radius:  2.43485427079 Dipole_moment: 5.196
 S           0.71549448813714   -1.86957485968685    0.61809454431192
O           0.93271633690458   -1.88402927707686   -0.90360232924878
O          -0.71704667890035   -1.78964725151042    0.86157900143075
O           1.38419289204274   -2.95981059359979    1.22185204049639
O           1.34004326065812   -0.53586952909302    1.08692446595139
O          -1.52077933376733    1.00657541780395   -1.44080788880601
H          -2.28629452269244    1.48511448309148   -1.76100477646580
O          -2.02964714372377   -0.15675310962450    2.52478370551877
H          -1.69943425724897   -0.87797163335759    1.95432289622080
H          -1.87016469102622   -0.43348115088529    3.42827335097073
O          -0.39568128687647    1.31683255292643    1.01562961851602
H          -1.05591697811840    0.96935593506254    1.65392175233743
H           0.64722636820615    0.21938354236962    1.04800311911233
H          -0.83739230238890    1.28298878114004    0.14336640465011
O          -1.88419705011265   -1.58785466374152   -1.49762284237332
H          -1.75055259640928    0.03915869746248   -1.49030889068782
H          -1.23461923404829   -2.01352643128771   -2.06340781603892
H          -1.58275392807700   -1.76540159703182   -0.58181277673442
O           1.12098475674798    0.41373615255834   -1.88282524542862
H           1.04164957742322   -0.93216855010888   -1.31459338384643
H           0.21611412325935    0.76749940471327   -1.88406242677689
H           1.64626808230328    0.99867761862840   -1.26948695105760
N           2.36635468304794    1.96355872180238   -0.09431357516822
H           1.60272796622142    2.36310920590233    0.43905630324830
H           3.02762881720153    2.69749702723773   -0.31233199818267
H           2.82307865123497    1.28260112630616    0.50037371804973
