    26
        -50.45300983  Gyration_radius:  2.43482344334 Dipole_moment: 5.196
 S           0.72851132883999    1.95496296707485    0.19006831687281
O          -0.39007298368783    1.93841526150585   -0.74066088012083
O           0.17901016388471    1.63645899229986    1.58994412230476
O           1.63533788781520    0.75170684347597   -0.15433602017106
O           1.48981429268426    3.14658561193094    0.21874519408532
O          -1.91578641654824   -1.28718168529968    0.27355428955938
H          -2.68689833266424   -1.81932999472194    0.07404808892525
O          -0.55509445854583    0.71567773790774   -3.11405952256262
H          -0.00746454855375    1.18218329996930   -3.74711516179927
H          -0.61920752724114    1.29299578699067   -2.32839208089475
O          -2.52596149256620    1.23443349638360    0.64164901022167
H          -2.27935369183090    1.52237883089665    1.52455837722081
H          -1.83877429696132    1.60560051094263    0.04908505943229
H          -2.23882763706518   -0.35246006767333    0.38798846942658
O           0.10415642429591   -0.82061206996114    2.07055090323168
H           0.91785929568526   -1.26108110332458    1.69861264139081
H           0.17224212751784    0.61720002680997    1.80890327209089
H          -0.64600398406470   -1.16083969365864    1.55535487216119
O           0.28387781205382   -1.06185469475409   -1.30978872495480
H          -0.52622980120076   -1.21598041617126   -0.78337819657523
H          -0.01587785629814   -0.57954611545687   -2.11078755871608
H           1.09252498283123    0.01017457878169   -0.60965192350019
N           2.21174543664957   -1.95106525293121    0.87437849879379
H           2.82728059488653   -1.16001327390392    0.72827569968076
H           1.84778154221323   -2.21931790144678   -0.03273580662551
H           2.75541114787077   -2.71949168566741    1.24518908052017
