    26
        -50.46954182  Gyration_radius:  2.39877068966 Dipole_moment: 4.979
 S           1.52702372112264    0.12437463943695    0.43000807469220
O           2.46804254695421    0.75838959442949    1.31159081171194
O           2.28124396865787   -0.80237709639516   -0.57376208135492
O           0.60744991969574   -0.76732620804957    1.16758438134122
O           0.75978017077962    1.08932389316534   -0.36092858655085
O          -1.53644353940235   -1.44887536642556   -1.86198107689380
H          -2.10683610999932   -2.02583789499937   -2.37163811568157
O          -1.88706062619870    0.97655492759597   -0.50347366033494
H          -0.92437437112738    1.15015754229905   -0.57441562058202
H          -2.00676777705662    0.13017438798909   -0.96189012344469
O           0.75962506513107    2.63081715213358    2.03994282697986
H          -0.56421614434242    1.68142713434424    2.15413963773024
H           1.49429076828691    1.98792836004847    1.90497450206445
H           0.71543797606655    3.11630702738663    1.21171383058211
O           0.09656785238667   -2.84988434695647   -0.33639129289964
H          -1.00063100452580   -2.03409131298766   -1.26791348315661
H           0.94523830890804   -3.04727975337536   -0.73975608540991
H           0.28516198010010   -2.14778116827244    0.32688411682201
O           0.82196929257130   -0.24712758855862   -2.64683350400268
H          -0.04124312887060   -0.69121030605779   -2.55497482888176
H           0.73207585311860    0.57922622591830   -2.14581081070901
H           1.82228858994894   -0.69052227047984   -1.45210874747525
N          -1.20106880009521    0.84676043864155    2.02609924086919
H          -1.73710944863049    0.95379079635021    1.11964989072631
H          -1.79157858267408    0.67484902730138    2.83164059474523
H          -0.51886646086610    0.05223214551253    1.82765009918228
