    26
        -50.46954174  Gyration_radius:  2.39859968671 Dipole_moment: 4.985
 S           0.11075644081813   -1.55169041224372    0.33466866791580
O          -0.60232368619438   -2.74523865365947    0.69741722658628
O           1.62193433438577   -1.87916706874786    0.12401172673981
O          -0.38351293242791   -0.95839490853555   -0.90992760126351
O           0.07754545051840   -0.54841332412902    1.41953669938818
O           1.72318575607019    2.11976898495418   -0.68266457945197
H           2.28243223669977    2.89327579142458   -0.76467307272320
O          -1.00547603311597    1.61586981881367   -1.06731865480339
H          -0.80771459091949    0.66281454407422   -1.18730491341676
H          -0.13425132356316    2.02007466074356   -0.93088589678017
O           1.97964818528387   -0.33133467219746   -1.92846235891845
H           1.91403157248421   -1.34310829059903   -0.66461125320552
H           1.03628084748341   -0.53615115948204   -2.02882639519364
H           2.00420382458482    0.59538713957350   -1.62639950103039
O           2.37470167631199    0.70905888705881    1.44823712913006
H           3.01293505508570    0.01130172644737    1.28192778841527
H           1.97713124182779    1.67606951013961    0.16657535297894
H           1.51362755597954    0.24673093659648    1.56371172434824
O          -2.94957381800155   -1.71624065817232    0.07466980761243
H          -2.84020713359641   -1.67686948189190   -0.87932182964257
H          -2.16759381688523   -2.22834947635773    0.38674225704189
H          -2.69669672181869   -0.22236512916062    0.68352695140288
N          -2.18279694468525    0.62320879163783    1.05739037490417
H          -1.26383593366224    0.21139332416671    1.40644992009751
H          -2.70118789096599    1.11217595663406    1.77803493601351
H          -1.89324336170803    1.24019316293137    0.24749549386784
