    26
        -50.46954173  Gyration_radius:  2.39871293128 Dipole_moment: 4.988
 S          -0.21977707126214    1.18215246918159    1.04289225106745
O          -1.32321467110522    2.06862935633059    0.38567865500194
O           0.14215875001627    1.72207655010495    2.32437331413588
O          -0.75366214243089   -0.17850782841493    1.13701861509896
O           0.91762116427179    1.21331621884068    0.09945526781190
O          -0.93127695912982   -0.73573715979709   -2.55402642505513
H          -1.09914160215910   -0.94265547288918   -3.47421809828910
O           0.16744310804879   -2.13990455663110   -0.39364963007545
H          -0.29467624521994   -1.53773944144077    0.22731337609821
H          -0.10735192767933   -1.82787696679290   -1.27010964099486
O          -0.01379642902837    1.72327719769580   -2.29452477782387
H           0.43633553206599    1.60168510765724   -1.42781141300565
H          -0.53088304169784    0.17085505542064   -2.53673770772438
H          -0.69136944136728    2.38428190538094   -2.13390433120456
O          -2.71033584334247    0.12010220160717   -0.62286745195358
H          -2.31208213009033   -0.32744154827591    0.14072019399475
H          -1.95915538911728    1.43867915474327   -0.05389712465752
H          -2.23890875195037   -0.23822655182980   -1.39746914474476
O           1.25663871846874   -0.52846882669698    3.12966324601210
H           1.99207242439517   -0.91923520394836    1.72467985021204
H           0.92103427760282    0.38411695393452    2.96919804285972
H           0.46109922271796   -1.06097851337874    3.21463229515055
N           2.22243852914975   -0.92183768825109    0.69242001495466
H           1.86686076234466    0.02775471646786    0.36414926606291
H           1.59283050686621   -1.61386827720843    0.19730027267615
H           3.20909865962057   -1.06444886182367    0.50972110440260
