    26
        -50.46954177  Gyration_radius:  2.398566741 Dipole_moment: 4.984
 S          -0.44265055366552   -0.11326952778707    1.52395513588000
O          -1.99971535212665   -0.02163821306312    1.47514532199046
O          -0.09943721684126   -1.32353603454401    0.74801978089034
O           0.08449431870872    1.07696970672856    0.85253821150869
O          -0.00140748635347   -0.21770552911799    2.88739823801794
O          -1.22984690544580    0.17222686285426   -2.52662235209085
H          -1.59952561890080    0.07885039001901   -3.40547459156658
O           1.27237990269194    0.92251499327620   -1.51447166687129
H           0.85111019151745    1.15855215394319   -0.66082114758044
H           0.53090163745166    0.63347345947969   -2.06906469129590
O          -2.03552043896080   -1.78593692054391   -0.95419120931498
H          -2.82809963199751   -1.58903848757427   -0.44927762349105
H          -1.51802990748518   -0.62482879375163   -2.01267994477638
H          -1.29867926981871   -1.73822455490041   -0.30360840376032
O          -2.13623569061623    1.73023832027665   -0.43467400791356
H          -1.27578022837989    1.96138852082788   -0.04973276829311
H          -1.92354432351913    1.29421582960351   -1.28045937039564
H          -2.21564123214917    0.64355193119954    0.76408786199389
O           2.46932839935907    0.49715388075557    2.30385779382089
H           1.61434032952175    0.18098039049158    2.67838197548750
H           2.61399403067783   -0.34705153491047    0.91377345493098
H           2.30405036543669    1.41786654678747    2.08326747009295
N           2.33839176542933   -0.89378569134680    0.05120127935592
H           2.14197807585100   -0.21891683318006   -0.74019201032877
H           1.37670609487340   -1.27609740644133    0.30599383831389
H           3.00643874470526   -1.61795343910178   -0.18635061463500
