    26
        -50.47250013  Gyration_radius:  2.4090915631 Dipole_moment: 3.071
 S          -1.15332474828714   -0.27732003219230    0.77022514399942
O          -0.67989472328159    0.96382808759483    0.15522700964234
O          -2.29389181930235    0.09116329086810    1.76344373306126
O          -1.71444751711253   -1.14599132864619   -0.27038099619137
O          -0.12030547149889   -0.93651354517936    1.53603859189126
O           2.06139577593606   -1.46779093190564    0.03804062096314
H           1.39757885210833   -1.54075234846205    0.74714406197577
H           1.13540170304280   -1.58278209530760   -1.18410302512668
O           1.53777822736287    0.70325452327927    2.91323083544968
H           0.89963721138427    0.10040294439824    2.48882924862860
H           1.44930048559206    0.56582120131100    3.85694701602311
O           0.39517402068572    1.16662685063200   -2.28186861114137
H           1.25977467133454    1.52629327159857   -2.05956113062861
H          -0.11673170496088    1.22835020204560   -1.44862462963068
O          -3.43511745696771    0.90085034006452   -0.46862238278684
H          -3.03123625497054    0.05056749623224   -0.70811346340156
H          -2.96781089330782    0.49263488258354    1.17901460140515
H          -2.77802976412712    1.57155045171803   -0.67861625660484
O           2.02802392743324    1.19051433668770    0.24663391022627
H           1.05284040906980    1.20956579506929    0.27776440564837
H           2.28153446248920    1.28605995639839    1.17391167810015
H           2.29903017672721   -0.50992690616016    0.05617415738171
N           0.32723962843838   -1.45830973988164   -1.89094909152510
H          -0.55902233471390   -1.47386899782273   -1.31560844945712
H           0.32129381013745   -2.17058030200902   -2.61246490298566
H           0.40380930675797   -0.48364740289665   -2.28371208490927
