    26
        -50.46954174  Gyration_radius:  2.39871056061 Dipole_moment: 4.988
 S          -1.11532371225773    1.09759408797920    0.29186778046605
O          -1.43807204775880    1.69394260062284   -1.11369808774416
O           0.32722431245049    1.23784373876058    0.50301185267086
O          -1.88792101640208    1.77204644340484    1.29826405443186
O          -1.47452355898182   -0.33326210183764    0.19941977378343
O           1.30662103694459   -1.11080934008025   -2.23359841411429
H           1.66050710957364   -1.62085161874759   -2.96328007314092
O           1.94462420780751   -0.86485114747361    0.48258999156355
H           1.85751141981034   -1.14942609981505   -0.44071550157192
H           1.49978500969904    0.00891435568384    0.50373113149598
O          -1.32892509093029   -1.05626080929189   -2.31361932177899
H          -1.69551671385100   -0.30340181166666   -2.78338788578120
H           0.31977211468799   -1.18648027218780   -2.28809901561978
H          -1.48243895841751   -0.86328465897551   -1.36088286501904
O           0.98872022324457    1.62513132185066   -2.03237154475383
H           1.16578013474086    1.71616109382484   -1.08249540181308
H           1.22217781174733    0.70238735664270   -2.24371887222456
H          -0.56973861183234    1.73734203774415   -1.60217786248368
O          -0.33274343724273    0.94751060434936    3.26269590924485
H          -1.02551506995657    1.30176372431123    2.65799406212064
H          -0.10018950936319   -0.57843507243926    2.72801727421785
H           0.44958000018740    1.46552438613368    3.05466487997200
N          -0.07355818645312   -1.40594151772550    2.06999891304086
H          -0.77495014943378   -1.13518942428288    1.31449899588335
H          -0.29810461960486   -2.28120541112943    2.52896409459467
H           0.85521732158913   -1.41676245563706    1.56232617254886
