    26
        -50.46954172  Gyration_radius:  2.39873253361 Dipole_moment: 4.990
 S           1.43519042828255    0.16772505842173    0.66791572210606
O           0.76033099258446    1.12760736394692   -0.20865983653874
O           0.45057626203751   -0.78108480952226    1.22931435504565
O           2.37488802027799   -0.69752273827366   -0.22855323748026
O           2.20002386617087    0.80852228324219    1.70187277779109
O          -1.16493532523186   -1.44363010497404   -2.11911905657351
H          -1.63033669990797   -2.02486691482515   -2.72188241077560
O          -1.82498380914684    0.91879231877010   -0.76664859087486
H          -0.87142197229959    1.13144449854673   -0.68108845678546
H          -1.83504967463659    0.08444309896859   -1.26137949454515
O           0.32047676452018    2.59034227375538    2.19989315328988
H           0.38487441286548    3.09884446390794    1.38691487435579
H          -0.96405823737150    1.58825025681188    2.08221095394143
H           1.09391497904658    1.98055760711104    2.16589226292326
O           1.23572937004468   -0.12992071500448   -2.49097319619191
H           2.05512612057097   -0.57404386603293   -1.16500285127999
H           0.38860763175229   -0.60902115433373   -2.54954084337762
H           1.03310241465926    0.67516221949507   -1.98832546141962
O           0.26732947063020   -2.82988991571197   -0.39192877724307
H          -0.70369878346741   -2.02680969533563   -1.46365445412822
H           1.17603673430984   -2.98244162367982   -0.66188603432594
H           0.32067810344459   -2.14340548201277    0.31121648940896
N          -1.53680275222541    0.73416317513313    1.83509626954400
H          -2.23763869531962    0.51449032568376    2.53347272228589
H          -0.79872464759602   -0.02700363930654    1.72604003550240
H          -1.92923500397089    0.84929574518755    0.85880306535573
