    26
        -50.46954179  Gyration_radius:  2.39881144744 Dipole_moment: 4.985
 S           0.97419241661146    0.31354943445796    1.21965503603623
O           0.02891112928293    1.24078554604348    0.59360966480756
O           0.60744199899098   -1.07970536752725    0.88911888886147
O           2.36342642990886    0.54342738924505    0.54693919593732
O           1.08012766631700    0.50913678257970    2.63921433639861
O           0.18350985607586   -0.33915676455613   -2.79023902196738
H           0.22340426091206   -0.61142443051150   -3.70790378756432
O          -1.87946272984645    0.38688412055606   -1.03977867705192
H          -1.23171642925584    0.86816173940455   -0.48253662626765
H          -1.34716818193955    0.04506257795214   -1.77522200895009
O          -1.52253954459211    0.80596537839322    2.94743224187189
H          -0.54716914897851    0.67967123846245    3.00856040307836
H          -1.62371168528007    1.65613337191689    2.51078512255777
H          -1.99725685411786   -0.36659810287143    1.91397883510464
O           1.84876154496923   -1.75600565883943   -1.31544376609469
H           0.77966151863283   -0.95120292054326   -2.28763054940114
H           2.71860410087984   -1.36316164264608   -1.21088020032831
H           1.40084047061710   -1.62115587332912   -0.44952618019871
O           1.47513646826005    1.76988356138299   -1.56133749083563
H           1.05781681005218    1.11938291165099   -2.15579804170655
H           0.78375283572817    2.00237965599308   -0.92109854467817
H           2.18166193282519    1.02854105980316   -0.30515133274366
N          -1.95231590520582   -1.08022661441375    1.13474191228847
H          -2.18259558415648   -0.60716113629522    0.21628029248873
H          -2.51337903895903   -1.90324804252479    1.32184671910359
H          -0.90993433753782   -1.28991822384240    1.06038355930296
