    26
        -50.46954170  Gyration_radius:  2.39858788836 Dipole_moment: 4.983
 S           1.00127106847321   -0.40166301167482    1.16933438932360
O          -0.45899972412703   -0.51331081864977    1.19108332946891
O           1.56562091314662   -1.78771046484620    0.72676322117071
O           1.41895119467144    0.54396720960291    0.11289895495441
O           1.54523995295717   -0.03792657734997    2.44859058119963
O          -0.81834985129589   -1.01996631917010   -2.49381079277058
H          -1.00898908106982   -1.24643229779840   -3.40494914530711
O          -1.96990780742028    0.70935526566843   -0.61448459660314
H          -1.69888979014764    0.24344168409673   -1.42096259674610
H          -1.56702924447737    0.18384283568017    0.10891872702913
O          -0.32923120145542    1.76024160328825    2.90585859580407
H          -0.40176655305563    2.38205202461513    1.39784141211019
H          -1.07373620883188    1.16394068822823    3.02322529772314
H           0.45487128938015    1.16422323681899    2.87261999682168
O          -0.63786469334950   -2.69229165039165   -0.30420316490834
H          -0.79517074777785   -2.24633907101223   -1.15694603072049
H           0.80502683714277   -2.27352705840460    0.30223308886928
H          -0.99601045194619   -2.08643206978818    0.36404079506405
O           1.78092741011606   -0.80552095022443   -2.10244816249330
H           0.16281047217405   -0.89223648098381   -2.43391182352796
H           1.74313815216496   -0.22724843970082   -1.30704855077415
H           2.20496031431034   -1.61365684775136   -1.80406344921788
N          -0.27450146464131    2.46448990604566    0.35096827205271
H          -1.08866217364652    1.99534781000287   -0.13618604609133
H           0.54824359798728    1.81547479805567    0.15664254324548
H          -0.11195220924466    3.41788498562312    0.04799514429973
