    26
        -50.46954177  Gyration_radius:  2.3988353562 Dipole_moment: 4.981
 S          -0.39263967707098    1.39873839161655   -0.65068207668305
O           0.96351686763684    1.97228800365681   -1.16750075905563
O          -0.22886554506946    1.11385510621728    0.77665928314420
O          -1.44986677253748    2.33719644331764   -0.90793883316438
O          -0.59195140041657    0.13826073023031   -1.39654170573651
O           2.30127311401522   -1.59724242396391    0.29717974197556
H           3.01968406937664   -2.23110301820516    0.28704855371598
O          -0.11961901688019   -1.37457580190007    1.69044446474211
H           0.70527278517176   -1.68090656079847    1.28229007125413
H          -0.12194267059041   -0.40822519899661    1.52316746761994
O           2.41978798162151    1.11434658812208    0.80225677730419
H           1.64806201794548    1.71861185679199   -0.48819250948119
H           1.56379373847386    1.21166518142359    1.24917526050809
H           2.54625766112792    0.15197666958820    0.70925100677178
O           1.75272121984013   -0.75887533109498   -2.14259935442641
H           2.10518293210952   -1.37715309474530   -0.64923782774872
H           0.82857210430920   -0.46631897823532   -1.97260355504001
H           2.22281999305276    0.03639065133764   -2.40419749323187
O          -3.07816593588901    1.21627803088700    0.83785208543351
H          -2.61390321945658    1.45914293301881    1.64354975054155
H          -2.61484427407065    1.72166261135710    0.13000626244007
H          -2.72653421863898   -0.34002132761934    0.49010894635550
N          -2.20605293716943   -1.17908561481655    0.11086375797967
H          -1.49729679588523   -1.50175236728844    0.82772052130586
H          -1.61013754195185   -0.76081252991799   -0.66751804303638
H          -2.82512444905153   -1.91434093001541   -0.21056178347777
