    26
        -50.46954174  Gyration_radius:  2.39865708223 Dipole_moment: 4.985
 S           1.16974300965664    0.01126614091705    1.07871218172992
O           0.59447806988922    1.17481727624790    0.40005544466509
O           1.52988301470536    0.29051226233188    2.44142563156323
O           0.24232378337126   -1.13591611379462    0.98634382496525
O           2.43512564582399   -0.41720464052316    0.27216861448937
O          -0.33435309299988   -0.66963160590894   -2.71473536048812
H          -0.52799798917747   -1.02702453772766   -3.58223523080405
O          -1.69333417993531    1.01157475608701   -0.93310915092732
H          -0.84072724227140    1.24053019065577   -0.50590418373703
H          -1.44128210835681    0.40814015029879   -1.64959049588542
O          -0.67699654161523    1.65775259650689    2.90620137924979
H          -0.49039118715907    2.42310223388563    2.35570432417067
H          -1.70775315411729    0.68147241766387    2.09950910380774
H           0.16763025976550    1.15005383579233    2.90890091548008
O           1.83452147645013    0.84196325485797   -1.91664616250186
H           2.34935414679656    0.01000173061129   -0.62492699168091
H           1.11974523303158    0.36126268817108   -2.37347305898574
H           1.38216832607550    1.40162194126999   -1.26540622897403
O           0.81496695021445   -2.48432375224793   -1.18460197893961
H           0.57456478437998   -2.08973802471729   -0.31564805513120
H           0.03250125443355   -1.41697654789985   -2.17670538945345
H           1.77478655551916   -2.47268921677409   -1.20761652229710
N          -2.05228424739354   -0.06436657804397    1.43328099070512
H          -2.19630356309931    0.36406945320254    0.47620012009241
H          -2.86276496313161   -0.56160165099835    1.78403092049375
H          -1.19760423087577   -0.68866826985275    1.30806535828730
