    26
        -50.46954172  Gyration_radius:  2.39883679146 Dipole_moment: 4.987
 S           0.94187233052366    0.88304255524064   -0.93138922216556
O           0.80892013190450    0.98161950495524    0.52386614707953
O           2.16348292897818   -0.04312799201540   -1.22363690067700
O          -0.22647111571851    0.17646818231277   -1.49767772743724
O           1.13840666994396    2.16259591103801   -1.55491520391305
O          -0.05448438128242   -2.61753936246419    1.03747499601707
H          -0.19195755651137   -3.53342141752537    1.28256140111891
O          -1.19389360159397   -0.18088194333176    1.81844763196270
H          -0.99618423579002   -1.11595957344509    1.65240910887690
H          -0.39206975098375    0.28950543117505    1.50610383401524
O           2.27638012956277   -1.13937879432627    1.12663804011516
H           1.54451812757587   -1.77750708156213    1.21523048939318
H           2.33906164930971   -0.54456919982887   -0.37977670242239
H           1.88722811989286   -0.27999813496942    1.35459095403642
O          -0.68153043363485    3.34511773244699   -0.05644815210417
H          -0.01019413587918    3.04953002971885   -0.71457082630034
H          -1.78670633571510    2.14222016207508   -0.06828386712865
H          -0.21487295824349    3.32303715397803    0.78347161766939
O           0.31466734604223   -2.38517885842690   -1.56342130543045
H           1.23452220437449   -2.41161884496861   -1.83743486735843
H           0.01117922805101   -2.59631701249503    0.04860270511013
H           0.04937829845489   -1.44118934881591   -1.64739609919631
N          -2.20099953686403    1.17665415821814   -0.18872026055464
H          -2.06983904690963    0.62761346712992    0.70676884955328
H          -1.53102095285428    0.71140110178660   -0.87475569189619
H          -3.15939310942737    1.19788217469015   -0.51773897956440
