    26
        -50.47249924  Gyration_radius:  2.40849635394 Dipole_moment: 3.046
 S           0.71728908387769   -0.55323364160970   -1.08323227159485
O           1.12660939787679   -1.70818126063214   -2.04363754602880
O           0.60611759849180    0.67989388345271   -1.87008763286579
O          -0.59373802340709   -0.88446501342694   -0.52244444753538
O           1.74006462023206   -0.46451804281275   -0.06643417314512
O           1.54168147007946   -2.28857899133863    1.92532482377709
H           2.27342686953492   -2.90597535008492    1.89926340824660
H           1.67274541268252   -1.67847631082920    1.17609076385169
O          -2.41790949676320    0.89104841954219    0.28824374139747
H          -2.50616831607189    0.63742133109861    1.21250782949424
H          -1.89120142385368    0.16925375373170   -0.11387389994675
O           1.11562803581515    1.33803021521732    1.84393982595838
H           0.33243645028993    2.12050043555535    0.77678699309286
H           1.65255727820058    0.77075811281876    1.26213021197460
O          -1.02783494823820   -0.88108504342345   -3.31405672006471
H          -0.57874697518281   -0.05876961108250   -3.05815392568672
H           0.42083845974280   -1.68646375433065   -2.72063093176708
H          -1.64289663093006   -1.07666967023676   -2.60047280177650
O          -0.64702077467120   -0.63409386819287    2.18410310129160
H           0.44503032162961    0.71074848358064    2.20596027818911
H          -0.65459033112573   -0.83758705425639    1.22967048965291
H          -0.06830016776685   -1.31479531729892    2.55124371126728
N          -0.26243304776875    2.39580831745798   -0.08264176722333
H           0.13424262248142    1.84489917547705   -0.89250770496396
H          -0.25368647755799    3.39318140206519   -0.26472085428698
H          -1.23414101757834    2.02134938956974    0.07762947868183
