    26
        -50.47249868  Gyration_radius:  2.40846922964 Dipole_moment: 3.032
 S          -0.77826844342858   -0.99048656834432    0.63663980439364
O          -2.04077802308033   -1.88775272361962    0.79347215510012
O          -1.16125494494996    0.18258584597854   -0.15086017827508
O          -0.35552071842903   -0.55575606508200    1.97243597438433
O           0.22916976465495   -1.78777712982710   -0.02465597371428
O          -0.02136577970320    2.59257218977325    0.01812881220898
H           0.28946602730823    2.70002539796653   -0.88640101264897
H          -0.60140070479700    1.80349085113570   -0.01498314358515
O          -0.05098943977393   -1.99293454817082   -2.71048903381097
H          -0.28750992892580   -2.88554995185335   -2.96378975270047
H           0.01855312766443   -1.99486326706925   -1.73792299058053
O           2.43945285543882   -0.35028377688732   -0.60318038280132
H           1.87382672830980   -1.11680550027532   -0.40018236268848
H           2.13301607496753    0.51900580988130    0.62719374210985
O           0.55621890352738    0.64788045813536   -2.20613195211036
H           0.46544267746795   -0.08169519333212   -2.83263716013029
H          -0.14415247088851    0.46871974237394   -1.55053752559752
H           1.94762066097451    0.10028725763761   -1.33071108546307
O          -2.91203301520869    0.24727930400163    2.06693419656399
H          -2.66008481328377   -1.30639857546397    1.27869413862918
H          -1.99848286629826    0.14542662226591    2.38077228481325
H          -2.86487396040509    0.84031778980169    1.31077980158715
N           1.63628690313931    1.06304278089579    1.41829112599562
H           2.27426907346669    1.37759216240354    2.14079791165114
H           0.90320205337704    0.40498620130965    1.80042314275234
H           1.11019026887950    1.85709091636589    0.96791947391802
