    26
        -50.45300967  Gyration_radius:  2.43481192975 Dipole_moment: 5.199
 S          -0.73435297567340    0.35356433055189    1.92996305371313
O          -0.96425394503395    1.52487065239939    1.09740902256147
O          -1.62927231237037   -0.77975761111249    1.40335889068644
O           0.70770994098670   -0.13192809198796    1.65854850558717
O          -0.93443428008955    0.53485233254371    3.31823894125838
O          -0.64654185837263   -0.08285761878212   -2.23069709466235
H          -0.73713115327530    0.14437616951496   -3.15678255427389
O           0.84407239065328    3.13045749078851   -0.04583065986005
H           1.25922796094054    3.66862682180024    0.62962503301073
H           0.07147590717030    2.70700357833095    0.37663991098992
O          -2.65419696983344    0.79848864127520   -0.79579363211300
H          -2.11573521002010    1.21489713241321   -0.09022884461385
H          -1.44185745550885    0.29574137490669   -1.76671271816455
H          -3.11439815923939    0.07271110375412   -0.36600184296537
O           1.45831625441278    0.60602785906515   -0.65276900857019
H           0.75242589326194    0.37224936181524   -1.28859121252795
H           1.40615958017225    1.58167016354872   -0.55545602960631
H           1.01205310333993    0.15144173884948    0.72104683237829
O          -0.53705387893650   -2.12653566294160   -0.40401655525344
H           0.42742830662401   -2.25893268031706   -0.18803079606834
H          -1.17065118342011   -1.36339440133713    0.67118994606787
H          -0.56195250306596   -1.56292704084010   -1.19497765779346
N           2.07510545572657   -2.26641774971298    0.15066855210060
H           2.09831085518885   -2.03992935741739    1.13763960636349
H           2.46232814251652   -1.47356336791162   -0.34799729497354
H           2.66721810384860   -3.07073517919717   -0.01044240327184
