    26
        -50.46954180  Gyration_radius:  2.39879835683 Dipole_moment: 4.977
 S          -0.03547737575759   -0.96760286141232    1.26263874078716
O           1.05357504645363   -0.06510494651580    0.88247911964621
O          -1.28822099229695   -0.55487318753112    0.59540992626532
O           0.30016856541254   -2.37316312205378    0.67356382167783
O          -0.20196387888431   -1.06163706095741    2.68674232449946
O           0.35317999533559   -0.21022222995482   -2.78567171553442
H           0.31865341839974   -0.25690040400460   -3.74199680883033
O           0.70554508270464    1.85018651541321   -0.91973946703671
H           0.53434874503514    1.32055484563176   -1.71409541771810
H           1.00848276073545    1.19291490657051   -0.25784312203191
O           0.10788482105316    1.53214931378335    3.05001669980354
H          -0.06639173485974    0.56265389510204    3.08060731420649
H           1.04349426337061    1.59752987456662    2.84020338167783
H          -0.75108133349008    2.03531301892365    1.75503773132276
O          -1.44729271992419   -1.80328981665940   -1.70139422136826
H          -0.38692059683867   -0.77666081137129   -2.44818531931338
H          -1.12569231730898   -2.68495873864943   -1.49859476732082
H          -1.51339317241801   -1.34815014227865   -0.83134140123779
O           2.04298573125573   -1.55853269027571   -1.06874317191789
H           0.98762796685601   -2.22034179537317   -0.03256833481631
H           1.57465445568070   -1.12561132664527   -1.80639452835872
H           2.13805409885492   -0.86770273001468   -0.39379665405869
N          -1.25013267295014    2.00618146939517    0.82305033023162
H          -0.55554403861169    2.20680480705201    0.04991989984780
H          -2.07157831099107    2.59927830283469    0.79771789795202
H          -1.47496579688795    0.97118493442584    0.70297774158097
