    26
        -50.46954182  Gyration_radius:  2.39886413653 Dipole_moment: 4.983
 S          -0.73258095096955   -1.27628321602598   -0.60770254304225
O          -0.73297720467197   -1.01738172612177   -2.14666442675137
O          -1.41166657182238   -2.50928666247431   -0.31926780562391
O           0.69346906063279   -1.33883580778208   -0.22389661950401
O          -1.37069980123940   -0.12125670525053    0.02790580235497
O           1.28773081541397    2.32047255697187   -0.94438096373981
H           1.85977041222397    3.03632670623786   -1.22415151201376
O           0.02494417276339    1.62410607620832    1.45765676357757
H           0.59456114649026    2.00519326592015    0.77121491700812
H          -0.62890432576364    1.09337115218421    0.95501656812135
O          -1.13442387712887    1.54385756111702   -2.01840331993083
H          -0.31180908089595    1.98076521698815   -1.73002028151859
H          -0.88743751059634   -0.03904636545132   -2.26269851424788
H          -1.56696272548041    1.25943170250546   -1.19744092682606
O           2.07854903808773    0.02644134414135   -1.97767289456135
H           1.67827670163408    1.48666510254444   -1.31160841894875
H           1.65648175362568   -0.56576957655888   -1.31459006392306
H           1.66194634931406   -0.19681547472286   -2.81343311469247
O          -1.76037560066214   -1.90148221624943    2.22353500602982
H          -2.40429715550373   -1.19610047030943    2.11657381275826
H          -1.67704826104723   -2.29189468284076    1.32256798376239
H          -0.29504132063548   -1.22968096335748    2.48783258225461
N           0.64427623143060   -0.78714127957857    2.28718554799394
H           1.35868932913242   -1.06124440392148    2.95176746257573
H           0.52341680790683    0.26080774547066    2.19929299925963
H           0.85211255775965   -1.10521888961872    1.29138196960525
