    26
        -50.46954177  Gyration_radius:  2.39864480673 Dipole_moment: 4.980
 S           1.23863982836651   -0.99807519203855    0.00438598711019
O           1.85190323470848   -2.13250375986423    0.63814417276885
O           2.08394439106349   -0.55911094610585   -1.23162124765382
O          -0.11537159501396   -1.28586408099251   -0.47439159460365
O           1.21755109191944    0.17818811480985    0.89921589080270
O          -0.88004324396190    2.23255866323921   -1.47425149281981
H          -1.13626895896565    3.07606806350340   -1.84935534875704
O          -2.15859508453495    0.30340168370842    0.10621753316458
H          -1.52245112170461   -0.37153135369185   -0.21268161826944
H          -1.89800385699330    1.11111008452387   -0.36328161616436
O           1.59049532832001    2.32389299993739   -0.55545962616316
H           0.02615561172960    2.35667962670409   -1.09235337646038
H           1.51839989479150    1.57613711734330    0.08033231090415
H           2.25943395931622    2.05062175481747   -1.18774086491242
O           0.07928096172449   -0.00139114177823   -2.78242356197293
H          -0.32129789060579    0.83876468304833   -2.49168931092904
H           1.42867592997095   -0.31106603212775   -1.94147513482771
H          -0.32368915010332   -0.67887806822811   -2.21626224139888
O          -0.34790913764676   -2.78916653239995    1.93704672849548
H          -0.87555630623769   -3.07878503013250    1.18781668723386
H           0.55385693036587   -2.65861039760620    1.56164707276622
H          -0.81653561299688   -1.27832908484932    2.34338582759673
N          -0.87752277258174   -0.22246505434616    2.33546223390959
H           0.05104111739766    0.06899435991425    1.90089820872731
H          -1.02820256391121    0.17038843251660    3.25747581275167
H          -1.59793097451950    0.07897111013160    1.62095853877450
