    26
        -50.46160208  Gyration_radius:  2.61762555654 Dipole_moment: 3.623
 S           0.24847520866967    0.17042113804127   -0.62946171019816
O           0.40687698250704    0.92415267114002    0.60719293188059
O          -0.56267561864209    1.03129793913578   -1.62842102699837
O           1.51915338516286   -0.17796386374414   -1.23448836356714
O          -0.53152840545190   -1.06352957840235   -0.39291223686218
O          -3.80902196644972    1.07950444876539    0.52673516625111
H          -4.67880090641675    1.39864724944057    0.28157315864839
O           3.79978141326988    0.17436838852437    0.04150365426533
H           4.13095489829765    1.05709728324603   -0.12941463023486
H           2.99818102376565    0.07564411825727   -0.52158978499528
O          -2.95199181416894   -0.58378061229019   -1.39355285947303
H          -2.67653889448086   -0.02961924665621   -2.12892431163551
H          -2.11579018204970   -0.89152493922468   -0.98912166925001
H          -3.57638212021575    0.37811081669297   -0.12405842618235
O          -1.63596208391265    2.56617958300162    0.07016488988797
H          -0.94803421633107    2.23439054695395    0.66850326891649
H          -1.04218345792521    1.72896388781315   -1.05761154145919
H          -2.46988977321136    2.11078039035512    0.33283316059576
O           2.14489756446406   -0.44940266769806    2.03562357587170
H           1.80174317588040   -1.67178296786557    1.26040608043929
H           2.94840874724752   -0.16663066883744    1.54795746916439
H           1.44233229654739    0.15045756190469    1.69309511370367
N           1.48102497078557   -2.39059498251121    0.48822279693719
H           0.55653773510580   -1.97570101233793    0.11983713907148
H           1.37372739387151   -3.33768929074528    0.83724333119425
H           2.14670464367279   -2.34179619295495   -0.28133517602535
