    26
        -50.46160188  Gyration_radius:  2.61762800158 Dipole_moment: 3.638
 S           0.43403056705940    0.34189002447968   -0.42972779250629
O           0.40850095917362    0.13332305077196   -1.96343474578313
O          -0.89302157702709    0.76040286620791    0.00185648484668
O           0.79430531289782   -0.95858373043266    0.17512947251649
O           1.45653086913455    1.31735021036915   -0.10546111521227
O          -2.15628227468819   -2.79460314111197   -1.86928590863058
H          -2.42178510571009   -3.37449962980571   -2.58461266501486
O           0.96494812815820    3.36524788673749    1.47991268506750
H           1.20433606740354    2.66559346860832    0.82971846599125
H           0.65907700889170    4.10994043097698    0.96037313613602
O          -0.61028561389027    1.48330673484012    2.52144770695574
H          -0.19337246052095    2.35472879578681    2.34906409795187
H          -0.92478530559281    1.19633885200001    1.63298439844558
H           0.61394571637520    0.64202979959338    2.61487608997093
O           0.52279247233906   -2.75081741390678   -1.77576515667096
H           0.80854713250336   -2.18957691276219   -2.50178433940072
H           0.65914142881789   -2.20635744362275   -0.97428869745080
H          -1.18151458539762   -2.89740283684001   -1.77512874716149
O          -2.09220290035222   -0.14488467317754   -2.21030592105369
H          -2.13047796027183    0.24283697290186   -1.32168357101718
H          -0.57762377054498    0.02836248476586   -2.20691219252774
H          -2.25166933689118   -1.11068301839312   -2.09401804858763
N           1.53317504445030    0.07004461236909    2.40737358755957
H           2.25737589918593    0.73103582346451    2.13099334469793
H           1.28692605361828   -0.50049054759150    1.52621967932578
H           1.82938822088162   -0.51453266622828    3.18245975156276
