    26
        -50.46160234  Gyration_radius:  2.61721702531 Dipole_moment: 3.625
 S           0.23964697069430    0.05431312603630    0.65265025602585
O           0.84752823920916    0.59252434795142   -0.55708144117664
O           1.20459200336329   -0.99123349540824    1.26309952079433
O          -0.02887140618393    1.07922395247324    1.64245447797310
O          -1.01819952041139   -0.65508689774717    0.33443794283925
O           0.99859462580001   -3.44613684307929   -1.75214897898832
H           1.33783781888730   -4.34027961757878   -1.81464679313972
O           0.19162399398190    3.64296455371239    1.06826242426131
H           1.09101023643278    3.93198460646395    1.22820071075062
H           0.15215730252691    2.70847671991300    1.37583302578633
O          -0.67075928646675    2.63520925833612   -1.24328408642233
H          -0.04015374497672    1.87988112863130   -1.19412897657045
H          -1.79773571995599    2.04469843838274   -0.47290001483284
H          -0.32796539987078    3.26618980661245   -0.57412351242599
O           2.53636902436068   -1.46276926646744   -0.83372009453445
H           2.14014387001304   -0.63934089113485   -1.15990628650047
H           1.83278185844897   -1.25685199163910    0.50321667858883
H           2.05187518407313   -2.19524540918115   -1.28143083042239
O          -0.43693671114450   -3.24830888018848    0.50372537607975
H           0.19776352313359   -3.18752136667846    1.22290932402820
H          -0.78580558362505   -2.33952242982447    0.40466139818744
H           0.37520697562404   -3.43780652694167   -0.98997604985398
N          -2.42481872304329    1.49015706711173    0.24499702868033
H          -2.28269388086071    1.89970378121534    1.16683927017765
H          -1.97655719039134    0.51013439325480    0.27333035862054
H          -3.40663444961081    1.46464244577325   -0.01127070791325
