    26
        -50.46160232  Gyration_radius:  2.61718406674 Dipole_moment: 3.626
 S           0.69612547446524   -0.00681462220239    0.04422689810692
O           1.57115503944485   -0.86234946963956   -0.90407872553827
O          -0.12704247490048    0.88271541371506   -0.76435988084162
O          -0.14879131851407   -0.94514561131048    0.81384644534406
O           1.56085150288186    0.71431876847049    0.95771480961060
O          -1.43038454974826   -2.68938067683049   -2.58132226374487
H          -1.41171190970703   -3.43891746874461   -3.17826074772924
O           1.29866401257330    3.30854721193404    1.34719174864526
H           1.82629643381510    3.78493642458527    0.70477099800983
H           1.50045268610078    2.35536795486731    1.20528339619796
O           0.16150021344610   -0.58089235022210   -2.98407083595814
H          -0.24003415348957    0.15812812406761   -2.50029564899643
H           1.11253459210680   -0.81266712228494   -1.81499812662754
H          -0.49183208119234   -1.31816077459479   -2.94821579401917
O          -1.22681691677532    2.55553745475754    0.95060638979599
H          -0.97906506924780    1.99243596063249    0.18108958349768
H          -1.01732256202178    1.56353875921458    2.03886503057060
H          -0.43522087371758    3.11928542572018    1.08841834261654
O           0.06399817697331   -3.28641740855617   -0.43668418376994
H           0.98018855556695   -3.19772905921153   -0.71321637304648
H          -0.10532507297847   -2.49594558698959    0.11457994147226
H          -0.98522010595162   -2.98215623913777   -1.75328119208343
N          -0.65213412283212    0.74390095871966    2.67991455260846
H          -0.51192050808820   -0.07546195341746    1.99348265820225
H          -1.28319306104578    0.51385675761694    3.44090608828309
H           0.27424811284774    0.99946914884266    3.01788688938295
