    26
        -50.46160231  Gyration_radius:  2.61705622158 Dipole_moment: 3.628
 S           0.33865642490508    0.31159366222612    0.52580776566788
O           0.60791186580143    0.44548785457646   -0.89972455058397
O           0.06471949597472    1.58580324168283    1.16109200071980
O          -0.80016707851427   -0.60248741232129    0.75881600788495
O           1.57585073694024   -0.32908696428029    1.20098447251685
O           1.29816774577440   -3.70619153635536   -0.71730578708903
H           1.78315484617829   -4.51826067350170   -0.56294913140736
O          -0.31185550865364    3.77881179470078   -0.25315005846598
H           0.52935590537939    4.21085193405908   -0.40748236129482
H          -0.11731550892478    3.01893002157857    0.34201306311972
O           0.27829129103441   -2.87986137139003    1.62064458070853
H           0.83079901324153   -3.49709552517691    0.12377679211476
H           1.00819311335100   -2.49429476232751    2.11288177636471
H          -0.24681711029882   -2.11251312347773    1.31596863461714
O           2.57614057245504   -1.36481313455102   -0.87731712938762
H           1.98075827614930   -0.76333332308218   -1.35185798443286
H           2.09664598655993   -0.77575956573114    0.44474500106106
H           2.16528588836268   -2.25893309684829   -0.93687716498981
O          -1.36521249452343    1.91690672527320   -1.84326062959495
H          -2.20457326759072    1.51935999513335   -0.68103621865841
H          -1.03372803752786    2.78106229295117   -1.51685569381300
H          -0.60520312181358    1.30708740181974   -1.69773467433832
N          -2.57690962669478    1.19328496483223    0.30428101456551
H          -1.95494805345300    0.34646737957710    0.54597123275281
H          -3.56626602225334    0.96642288435208    0.30769006023625
H          -2.35093532184216    1.92056033631483    0.98087897170706
