    26
        -50.46160216  Gyration_radius:  2.61750219828 Dipole_moment: 3.634
 S          -0.67019464358926    0.19550282181124    0.01736529708318
O          -0.01503492719510   -0.24165946525378   -1.23420401168499
O          -1.85151660986934   -0.61397481693354    0.24427222465140
O           0.26465064512601    0.14331587413071    1.13352928462998
O          -1.10352992167594    1.66700263348483   -0.19154766894730
O           2.45323452456410    2.94411705230889   -1.12573947252948
H           2.70338692395390    3.80117127707344   -1.47408858217360
O          -2.00638291325692   -2.29934738504141    2.26567904747181
H          -2.04818589661297   -1.64602393330850    1.53018560625957
H          -2.36373761220406   -1.85067669067664    3.03323438763090
O           0.84547133788315    2.75045599357675    1.00003707071874
H          -0.39148445169848    2.22904090235193    0.27730204807060
H           0.99234342700268    1.86571583902882    1.37024503901132
H           1.53155177810713    2.87202651971925    0.30271889084385
O           0.43968684945239    1.98879530344101   -2.61613922645033
H           0.33804843783527    1.09975758747661   -2.22033840726125
H          -0.34779534051658    2.46741011769313   -2.34310147286118
H           1.80707034871259    2.56256452176711   -1.76331211213785
O           0.58459966274724   -2.42181044499727    1.65075636568236
H           0.65198796994130   -1.44271123204012    1.56441754366786
H          -0.26579081743510   -2.55455192868893    2.12223880991614
H           0.14980562433368   -2.74583862158186    0.26501402984726
N          -0.31028431442619   -2.74221178413467   -0.73685299648695
H          -0.13850237590791   -1.73962285224143   -1.09425635048391
H          -1.31757071824716   -2.83851527729085   -0.61915369877574
H           0.06817301296857   -3.44993201167467   -1.35826166569470
