    26
        -50.46160208  Gyration_radius:  2.61728966847 Dipole_moment: 3.636
 S          -0.07099676657217   -0.68805206381542   -0.10649764961231
O           0.55206511598287   -1.39884300179637   -1.33268255777996
O          -0.77586381598559   -1.66834660847339    0.69616045310850
O           1.04867961662924   -0.12933972390454    0.68153785892334
O          -0.94514529414823    0.37513228106491   -0.58393778328255
O           2.50426514785810    1.72965850773722   -2.58537990947960
H           3.16752609347503    1.77841237349578   -3.27545831461987
O          -3.24786803644859   -1.26046376628050    1.51671554176937
H          -3.86407904700570   -1.59229378485433    0.86225207787177
H          -2.35247387258283   -1.51118850764403    1.19284463759083
O           0.18880945268038    0.46302368595306   -3.00421635612162
H           0.44662721527465   -0.74359470866058   -2.10877378229875
H          -0.43206408565336    0.80988736700370   -2.34416760476884
H           0.99744627475530    1.02306976283137   -2.93897245414960
O           3.17658893181759   -0.25644630830299   -0.91452570135687
H           2.94835176522758   -1.07557721115540   -1.36245073461970
H           2.84077628436991    1.08511424393764   -1.92128291041376
H           2.48513152025430   -0.14798169150332   -0.23075166795083
O          -2.25084860776895    1.21174045943501    1.54799406279554
H          -2.88674313402972    0.46595801878968    1.59698332464705
H          -1.16819761163332    0.66805390044684    2.41242467909744
H          -1.81964604622263    1.09191055886150    0.67032147805510
N          -0.32984862170167    0.09032859365661    2.83527505325236
H           0.06582329885405    0.50598213189988    3.67253146697672
H           0.37797847251053    0.03433922129868    2.02387007028728
H          -0.65629422992295   -0.86048375999731    3.00018671207900
