    26
        -50.46160220  Gyration_radius:  2.61736347768 Dipole_moment: 3.636
 S           0.60456282767789    0.33343365611507    0.10547697156642
O           0.13934343321538   -0.03014901234443   -1.25029832955784
O           0.86499356680557    1.75894938785720    0.15339390383060
O          -0.35928123245163   -0.09168188786394    1.11188451899069
O           1.93181926621239   -0.42682343806316    0.34490599813614
O           0.44418590798128   -3.95127799204629   -0.36723967221065
H           0.91006692229036   -4.78243698944600   -0.47029282048929
O          -0.60368616355236    3.38388622005369    1.62077018500628
H          -0.23159061350152    3.44722516043538    2.50142059125115
H           0.02713678035654    2.83337860184646    1.10270154051696
O          -2.39707603870415    1.56233353103043    0.86452019667446
H          -1.98492605492181    2.32678981124973    1.32145994237445
H          -1.97684838941417    1.85532939333172   -0.53258876429374
H          -1.78093776984795    0.81781215732044    1.05590013484473
O           1.60458877402337   -2.13652521131263   -1.96376311325219
H           2.41993399614011   -1.87541259317034   -1.52703763412118
H           0.80462753700728   -3.34362287637371   -1.05314364343091
H           0.99990607639113   -1.37875933257994   -1.83146641015943
O           0.97154817853719   -2.33629476622424    1.69568320590857
H           0.19809765032045   -1.75821785183846    1.79076430220403
H           0.72309380828929   -3.01715028341772    1.02755980103995
H           1.68286457972524   -1.23444664166382    0.91785035571412
N          -1.41242035244762    2.00260921851583   -1.46806955188624
H          -0.78321080146974    2.79235819747260   -1.33359614410812
H          -2.00545059237608    2.12498176583507   -2.28271975384618
H          -0.79134127628576    1.12371177532473   -1.53407581069412
