    26
        -50.46160221  Gyration_radius:  2.61741758169 Dipole_moment: 3.636
 S           0.39990781003580    0.57289096844917   -0.01005676033248
O          -0.58778640747797    0.28916891000665   -1.07343123797969
O           0.13251670033929    1.88272399968671    0.55119276556071
O           0.38779893294147   -0.47902748331306    0.99786895449000
O           1.79377976478258    0.59132518358298   -0.68367366987660
O           1.48358725438201   -2.97436637224780   -2.21292685491964
H           2.06107486296908   -3.40038682964671   -2.84813969507162
O          -0.70556902418450    2.17890486399822    3.03322816879306
H          -0.33318834048271    2.15241208614396    2.12219318540265
H           0.04762239968496    2.25723983919003    3.62009337355009
O          -1.85180966985617   -0.12671288336304    2.34301390815097
H          -1.54784705694539    0.63537743711194    2.88141523382187
H          -2.42293607548953    0.60604111010427    1.18050610476043
H          -1.02495072310313   -0.45846764959903    1.92249216991601
O           0.83601433967816   -0.55154150536588   -3.16122317312036
H           1.60525136240595    0.00741927659873   -3.02142353734564
H           1.16045970558109   -2.14854396223700   -2.64094546417607
H           0.19555166259651   -0.26537505758723   -2.47910795768804
O           2.48690671779347   -1.75765217696808   -0.05537879045822
H           1.76059966362844   -1.70153630282422    0.58552986876762
H           2.15756121729244   -2.32324473803914   -0.79245439184026
H           2.20603737500446   -0.32019054369882   -0.47966218249126
N          -2.57579697441818    1.20443290830267    0.26732194271018
H          -1.84382089429877    0.81344789738126   -0.42114634581771
H          -2.29884340039617    2.16337645182161    0.47080434933784
H          -3.52212122246457    1.15228460253577   -0.09608998413311
