    26
        -50.46160233  Gyration_radius:  2.61684884186 Dipole_moment: 3.624
 S           0.60699950138388    0.30784300419126   -0.15563386225606
O           1.55742187782618   -0.25189991480326   -1.24198638578348
O           1.19543125881995    1.50571344914079    0.41107625086905
O          -0.69278568327216    0.55903230443332   -0.76406659090393
O           0.50057798463423   -0.72580190534709    0.89660155255188
O          -0.49102445632808   -3.50622569472895   -1.84173404063872
H          -0.24625679841782   -4.27608915545284   -2.35736950692821
O          -0.18523023973300    3.73903488057392    0.65118788533648
H          -0.10085906430888    4.25702853963762   -0.15047705304526
H           0.41180700045880    2.96495307642810    0.53364393102873
O          -2.06201206652779    1.89005471423426    1.05311625609667
H          -1.62799913502137    2.75925925263630    0.91340502123038
H          -1.74678224717479    1.34846771210840    0.29292131712274
H          -1.17515444969578    1.33844604277858    2.11230491531411
O          -0.22388774777231   -1.04625762828920   -2.85059743363955
H          -0.81477814535781   -0.47643018362322   -2.33327223386519
H           0.94753404634557   -0.59476609619776   -1.98584490205742
H          -0.42194160478860   -1.97051918760032   -2.57076292697907
O           1.52751837904935   -2.93854308548364   -0.17115833520777
H           0.20556927096727   -3.39898467588288   -1.15403764837734
H           2.20748935651499   -2.51676390777258   -0.70363644860149
H           1.12555025451974   -2.20770582186625    0.34041881747212
N          -0.33410381813596    0.91442527511611    2.68576918264842
H          -0.59745223068975    0.59301524920762    3.61183324270327
H           0.40493621528728    1.61460824307580    2.72174450699745
H           0.02943254139649    0.11810551347099    2.05655448892464
