    26
        -50.46160232  Gyration_radius:  2.61713221406 Dipole_moment: 3.627
 S           0.16302790748007    0.67202189527462    0.10166909473336
O          -0.80995789834881    1.81808499967996   -0.26801879540209
O          -0.51136711135460   -0.22447398998968    1.03128035666435
O           0.49513299747003   -0.03228516880495   -1.15549132889247
O           1.37208082037247    1.24444226407446    0.66070385404861
O          -3.41480574528935   -0.49407152629295   -2.00751197616072
H          -4.17725882597181   -0.24170476817999   -2.53045594466550
O           2.38723886195169    0.37510918953750    2.93340564557333
H           2.03375105985906    0.79613769808278    2.11654153455194
H           2.00019145775884    0.85907162107635    3.66419682472294
O          -2.95387771387941    0.63870565080662    0.36868403849329
H          -3.23170091955320    0.16162605798369   -0.44797666192330
H          -2.36862268961107    0.03148418380658    0.84853980141847
H          -1.74058564429226    1.47133956793736   -0.03064382811428
O           1.36430742102317   -1.85922677519119    1.90161814390849
H           2.16901471842511   -1.56835702492699    0.68491717515448
H           1.78457442092758   -1.23235260770686    2.52909477863478
H           0.52906404885586   -1.40466526987731    1.64406362636356
O          -1.27919809399718    0.82838906623890   -2.94514168028947
H          -2.62996968149242   -0.09757115551485   -2.45077258137673
H          -1.35613922481570    1.73014704480871   -2.62168387817795
H          -0.57520091801201    0.42820378177260   -2.39590942360233
N           2.62331395118951   -1.11145586220217   -0.21000481205909
H           1.77971951376817   -0.71381722641790   -0.75111104145825
H           3.17088878021123   -1.76342916316199   -0.76265755814707
H           3.17637849731958   -0.31135249280836    0.09266465600519
