    26
        -50.45396357  Gyration_radius:  2.61588011258 Dipole_moment: 3.045
 S          -0.86287169737595   -0.10443959415992    0.18463627302845
O          -0.82818306403801   -1.13995025983655    1.17680038873529
O          -0.51378678539739   -0.69274957706274   -1.18713424110521
O          -2.10322529680724    0.62076718382401    0.06690560875386
O           0.26596644782051    0.88155964585631    0.48909966350741
O          -2.17151301576453    3.22252147252322    0.84454231328566
H          -2.34181719855635    2.29239457633210    0.61105940525293
H          -2.22806017905349    3.28166340874754    1.79913068942817
O          -1.66120219463605    1.52337188911287   -2.44761513525110
H          -1.21407564053194    0.76201103986513   -2.82631816163545
H          -2.09014880255003    1.19399825309551   -1.63967803039396
O           1.68387602038183   -0.86898557553878    2.19361151299886
H           1.79743542635722    0.05943264640689    1.97474639423722
H           0.74905092554617   -1.05278620034958    2.00233373464286
O          -0.10327992899961    2.94430739471236   -0.83720339321735
H          -0.60908319200920    2.59135888553177   -1.60827000600901
H          -0.77987446715730    3.35955044250688   -0.26308075056860
H           0.17220811532765    1.77773341770212   -0.09075719412155
O           0.23203894274722   -2.96783291369670   -0.57304002642770
H           1.22250597901953   -2.89179686308735   -0.35623474933468
H          -0.22061725776191   -2.94017530120799    0.27939586133569
H          -0.17267180902995   -1.68417587690572   -1.02629395161014
N           2.71576221876031   -2.61426129653427    0.18227137764098
H           2.52392583469259   -2.01031624932785    0.98646816068482
H           3.32507963294069   -2.11292654275727   -0.45083525879172
H           3.21256099607241   -3.43027400573837    0.51545950494095
