    26
        -50.46160226  Gyration_radius:  2.61727729029 Dipole_moment: 3.631
 S          -0.25792701860942   -0.49786744481978   -0.41654499176773
O          -0.91050786505348    0.12191788845368    0.72915647463249
O          -0.15905984202683   -1.93859288911688   -0.28688351931365
O          -1.07681258641967   -0.16400886326107   -1.68729738075694
O           1.09454036324054    0.06590516668643   -0.61582302191027
O          -0.46840416849554    3.67582154060581   -1.48731283528918
H          -0.67596088794394    4.34507901036288   -2.14114587026310
O          -0.71943706045758   -3.16378899339168    1.97894807805624
H          -0.55794434355789   -2.78520000803124    1.08444638117204
H          -1.65151041585208   -3.38435192686882    2.00404679739755
O           0.88208222343049    1.70488035275295   -2.70375568375604
H           1.10097715650527    1.14459612416421   -1.93200982789824
H           0.23151813174117    1.19659941482664   -3.19589071622526
H           0.13320083101504    3.03310638401471   -1.92847074617918
O          -2.28887655517100    1.85607852085016   -0.76924300975514
H          -1.69721262547184    2.61838452973241   -0.97071031191113
H          -1.64683476059660    0.64571878702385   -1.43807846621958
H          -2.00665181186996    1.51795304360245    0.09529082672255
O           0.31559567418979   -0.86476973502198    2.84380373528163
H          -0.12566818075875   -1.74136688978405    2.83781066803403
H           1.49890156549964   -1.17905994627764    1.99888039887571
H          -0.20260408692524   -0.33962739930820    2.19086080820661
N           2.18280806476276   -1.42344588801402    1.16909510245453
H           3.16353122768406   -1.32280140916933    1.41057424104610
H           1.87790814811784   -0.75518089496752    0.37993660855147
H           1.96434882304331   -2.36597845505913    0.85031626087115
