    26
        -50.46160234  Gyration_radius:  2.61733271172 Dipole_moment: 3.629
 S           0.00528730466672    0.62047125931012   -0.31947435882743
O          -0.94970547502254   -0.44529018912628   -0.69224803244491
O           0.88139602962145    0.89593825722096   -1.56582170340960
O          -0.73053804012007    1.82494399503985    0.01230591227784
O           0.87157996727268    0.17924913565455    0.76566650382495
O           2.06328113941847   -2.79165038888322   -1.97334954127643
H           2.54716206259667   -3.18355462479432   -2.70186586185904
O          -0.76825043503797    2.78938461581445    2.46607858130595
H          -0.03121593276100    3.38956812685317    2.58732807003841
H          -0.74762343179060    2.52862451337409    1.51688788460083
O          -0.66025247709306    0.16344429055652    2.91066224546188
H           0.03637168540211    0.03578856021450    2.22579424850413
H          -0.65960884614316    1.13291734343865    3.06347243968345
H          -1.86178130932325    0.05105482387613    2.04072476233184
O          -0.03288141002178   -1.45630490540403   -2.97883462675928
H           0.31758707020025   -0.63975008378225   -3.34510990339893
H           1.23563071923885   -2.42048564600176   -2.35663340796873
H          -0.47642395095430   -1.18479911932677   -2.14998114557195
O           2.87486440515854   -0.49600136219772   -0.87227406463732
H           1.75530943311264    0.39455607638193   -1.39960993849846
H           2.47414144327380   -0.46291520219988    0.01075904253232
H           2.68777072620006   -1.39791837107749   -1.22345975504358
N          -2.58564880454499    0.09592847168140    1.21015767554732
H          -3.41536493436097   -0.46760777176547    1.36605449389086
H          -2.01551268928776   -0.23049661975510    0.35534620618184
H          -2.81557425963253    1.07490481492110    1.04742428353891
