    26
        -50.46160232  Gyration_radius:  2.61748866548 Dipole_moment: 3.631
 S          -0.06136945030819    0.69416725455022    0.04053123825766
O          -0.52178666065075    1.50740838352440    1.14904028468562
O          -1.17053154834663   -0.16620295616051   -0.42467355150043
O           0.31354363965166    1.62275913772924   -1.14017897349707
O           1.10429667489925   -0.10939868852937    0.38430139155499
O           0.95480746457103   -1.27492563535429   -3.66243300271747
H           1.10259389660518   -1.21778361635416   -4.60761378496991
O           0.42555704618601    1.18292728096873    3.58836400410053
H           1.20195227919067    1.73161057802825    3.70770718735738
H           0.07385392464999    1.40729597579920    2.69657849832083
O           2.30006795095730    0.29879170514325   -1.97275138662091
H           1.14254298241736    1.20271606782444   -1.56335392781358
H           2.25694008720506   -0.13521886598948   -1.10602651134654
H           1.92344029674607   -0.34346005500643   -2.61886033105251
O          -1.24666985812378    0.13578483931217   -3.06939258496343
H          -0.98991749076958    1.06154732130021   -3.09717602116787
H           0.07769111958140   -0.86094423504342   -3.49230528236351
H          -1.32972539242176   -0.06895183681104   -2.11616133065945
O           0.47364230837928   -1.30950687021012    2.64486399537902
H           0.85627487553330   -1.01913014493780    1.78468955311368
H           0.61002906227458   -0.53498153125666    3.23200940719523
H          -0.96874854797360   -1.12888145223675    2.32821775529702
N          -1.94126828320439   -0.77670559995936    1.94621300150984
H          -1.75449157234786   -0.59308450241738    0.90035933063019
H          -2.13455360239497    0.12971357420706    2.36901122012063
H          -2.69817119229541   -1.43554611811929    2.09903982112512
