    26
        -50.46160208  Gyration_radius:  2.6176324867 Dipole_moment: 3.635
 S           0.08894762419638    0.53840088217354   -0.43445844129609
O          -1.11422593451160   -0.31937712843552   -0.49330914740104
O           0.98703579449640    0.09411131358162    0.62321419793134
O           0.81687487755717    0.38637680119411   -1.79242570577523
O          -0.31885426668618    1.92027849340948   -0.27258287203975
O           1.13195615059735   -3.48649521836370   -1.58867942339296
H           1.41437401825394   -4.09397655439921   -2.27403680910701
O           0.19279999627046    3.26373849396757    1.93723653553254
H           1.04699389875865    3.69157616502620    1.86383199981490
H           0.02465484845866    2.84942498926906    1.05998693515377
O          -0.19045789774591    0.79807721925234    2.87451839647618
H           0.35829016867305    0.39785513167694    2.16092687921815
H           0.03677274850420    1.75195153704537    2.83361602319521
H          -1.50003976626030    0.82692664543264    2.16873152438911
O          -0.76270606738151   -1.89075729850760   -2.61470634689370
H          -0.30478608892355   -1.25201577450645   -3.16802210592664
H           0.35302168685005   -3.00374125156856   -1.94891367898479
H          -1.01776756150586   -1.38694227498770   -1.81568315549590
O           2.55418002360365   -1.29070934420459   -1.04333516102176
H           2.29782753013630   -1.01832923833226   -0.14806615243660
H           2.13480608464245   -2.17044523136238   -1.19153705569139
H           1.58188913409047   -0.26747766433691   -1.61930196048210
N          -2.30852322302241    0.90126688250480    1.42275851045774
H          -2.34682993180667    1.86586461227782    1.09741191924379
H          -3.20784871873859    0.58188395094541    1.76847503692246
H          -1.94838513853774    0.31253385125010    0.59435005757912
