    26
        -50.45396351  Gyration_radius:  2.61594227704 Dipole_moment: 3.045
 S          -0.54422697751124   -0.65237763155152   -0.26074619423555
O          -0.74779350881463   -0.31901154788221    1.22157739196206
O           0.36145969373245   -1.75772452618936   -0.38675853947739
O          -1.83908166244980   -0.81956516706045   -0.87197965223272
O           0.13257347521579    0.58469052504039   -0.85309094165055
O          -3.09051791169891    1.07575472290083    0.60289390200625
H          -2.65302131970274    0.94982436865285    1.44893992687035
H          -2.89881421681430    0.27096696445383    0.09218570053851
O           2.74092357652601   -0.49887900267986   -0.79991415012091
H           2.38026371711862    0.31081442512212   -1.17011689280105
H           1.98012653783083   -1.10042843231447   -0.73946841932878
O          -2.44987287952485    0.67058676873151   -3.05961403677537
H          -2.36151886764963    0.00616506186727   -2.35293675737862
H          -2.03339415227042    0.30061738933320   -3.83912629400573
O          -1.57827704087271    2.35298435355768   -1.16401578046612
H          -1.96988613597773    2.02225425090004   -1.99895158169308
H          -2.23399579708755    2.11352318856642   -0.46572575823649
H          -0.56036242830897    1.39341046587498   -0.97126256688856
O           0.97624663371535   -1.73408337084147    2.28715462549822
H           1.83300161902923   -1.18659740234763    2.28406225467230
H          -0.03778295150287   -0.88381133273251    1.77097081895436
H           1.04173837365638   -2.31842091892883    1.52131060831784
N           3.17201507348749   -0.33005384126297    2.01836729937276
H           3.14676910547576    0.63239942980691    2.32913875434954
H           3.20658537838373   -0.33471210752338    0.99508837692434
H           4.02684266596843   -0.74832665348350    2.36201790584031
