    26
        -50.46160231  Gyration_radius:  2.61728619787 Dipole_moment: 3.628
 S           0.03477213521473   -0.61410054386462   -0.33104309271844
O           1.03452375416746   -1.09295505127925   -1.26553018539372
O          -0.62314664689994    0.60128683794386   -0.79213464198539
O          -1.04008950954144   -1.71209987481827   -0.14078885334484
O           0.66682964561926   -0.39778633568534    0.98823038519609
O          -2.93523392838376    0.15739709625443    2.70173911461802
H          -3.63737350992012   -0.17211829057205    3.26466419936027
O           1.81039034837947    0.36171183118533   -3.32321464091927
H           1.52546262824507   -0.26448461475471   -2.61892321595117
H           1.24114335498512    0.18611693282052   -4.07358939405282
O          -0.92161249308017   -1.61229789647115    2.74717057769006
H          -2.16544632183434   -0.44140326341322    2.83777823136260
H          -1.19235229783719   -2.34477659591327    2.18689245147179
H          -0.25685283030077   -1.12826467744294    2.21684246631711
O          -3.03890020571916   -0.17556233035066    0.05212009618253
H          -3.10536392244987    0.03356097519310    1.01313354764640
H          -2.44599123823747    0.49192014734043   -0.32780159922705
H          -1.92817683871403   -1.21330467192772   -0.07087871985668
O           1.33250911270205    2.22843339616214   -1.48172349362647
H           0.48539407565776    1.80291918201132   -1.21339339519016
H           2.25914037261977    1.47499215346445   -0.59498932397630
H           1.54394368987699    1.80141551309013   -2.33978455965856
N           2.76763055127175    0.70677010529247    0.01097396147510
H           3.13100104012751   -0.00293927888254   -0.62304045699870
H           1.96576741902647    0.24305963924505    0.56266099071121
H           3.49203161502323    1.08250961538049    0.61462954086766
