    26
        -50.46160205  Gyration_radius:  2.61730514123 Dipole_moment: 3.624
 S          -0.41623896792902    0.11891830112592   -0.54805242516690
O           0.94883866687994    0.67975242758248   -0.45384653555579
O          -1.36098526874133    1.19813498070635   -0.75947928332110
O          -0.43590938670044   -0.81358776816843   -1.78381004959574
O          -0.72958793193926   -0.67379180591140    0.63353322010271
O           2.56648287588103   -2.99798522327339   -0.60213974800947
H           3.04320537056617   -3.66844900819583   -1.09376294241579
O          -3.15287146810581    1.84144014881953    1.06481649825150
H          -2.55891945593470    1.61821594265988    0.31199310280272
H          -3.94612358054580    1.32013004193236    0.93421122689911
O          -0.10532922806225   -2.99257284658090   -0.54452306818960
H          -0.35977341166261   -2.47906285002959    0.23839448092252
H          -0.33098436490326   -1.75854081611557   -1.41167864800591
H           0.87213515575748   -3.10801400548631   -0.49029096129556
O           2.43888723033833   -0.78247880736493   -2.10692968174524
H           2.01490357067558   -0.17183078226640   -1.47068473661924
H           2.64684148752347   -2.16389265594024   -1.11930209651291
H           1.76532627783572   -0.94515972267057   -2.77296409177945
O          -1.08775694837339    1.08008856806927    2.56808625332139
H          -0.92293589081454    0.28597582241403    2.00863787022246
H          -0.27468786175461    2.06825340261211    1.80997583145323
H          -1.98712507045368    1.36827662244154    2.30078586694738
N           0.23930361738600    2.65179842392125    1.02811598241990
H           0.92343604382437    3.30539312023066    1.39568815182149
H          -0.47137629870487    3.11974082531128    0.46804174929079
H           0.68124483795132    1.89924769418950    0.39518402375774
