    26
        -50.46160208  Gyration_radius:  2.61737444442 Dipole_moment: 3.627
 S           0.52643808578613    0.06770421950383    0.45496059461564
O          -0.45546959809078   -1.03507717841412    0.53739316923744
O           0.22368100394777    0.94340103978337   -0.66930303423115
O           0.55393328531682    0.77642679941683    1.71944639421097
O           1.91171527245719   -0.58017206833114    0.21363658776835
O           0.81188853044481   -2.54314154492802   -2.96810079080179
H           1.29613029421292   -3.21724281921102   -3.44723315623171
O          -0.28362993358268    3.26823358181837    1.92454112440310
H           0.10644408604946    2.36427164246279    1.91393367406764
H           0.44243627599467    3.86714196269402    1.74522328601022
O           1.99005659996032   -0.24205065675224   -2.29098046494094
H           1.56320132234500   -1.04605680757531   -2.66932549054994
H           1.27439420417110    0.39416684968938   -2.13460288548894
H           2.08280401882933   -0.48798812822962   -0.78863224629754
O           0.81388764630304   -3.19389222203955   -0.36713255297684
H           0.23219078739359   -2.48918016411497   -0.01716342713605
H           0.71816467434314   -2.87123431206689   -2.04441161019797
H           1.68808086684972   -2.97510028349705   -0.03303388839954
O          -1.92046273801978    2.29128429691325    0.06184068808403
H          -2.25332818084399    1.21621662695142    1.03449555113867
H          -1.46550048752781    2.92005495429319    0.66266339532164
H          -1.18031379424616    1.84524842066560   -0.41128695461318
N          -2.22340554798373    0.37712470638439    1.74928656616539
H          -1.57741839566130   -0.34254168761475    1.27270925321934
H          -3.13974328046304   -0.00225227654981    1.96548035739445
H          -1.73617499798299    0.69465502874766    2.58559586022864
