    26
        -50.45300972  Gyration_radius:  2.43478403264 Dipole_moment: 5.198
 S           2.00787857185594    0.25565656613726    0.53924230440039
O           1.99995684391754   -1.09189706375303   -0.20029477063172
O           1.62236659667481    1.28701974133550   -0.41236937788186
O           0.86998178791995    0.13535172122359    1.57822760926635
O           3.24650886048224    0.45173667559010    1.19317409126336
O          -1.38393452140759   -0.35743040608677   -1.83209286224795
H          -2.03541439743235   -0.20870628870735   -2.51836851541195
O          -0.18463023348699    3.23576253696202   -0.10778148438255
H           0.56537119704819    2.65356360766362   -0.33847629454411
H           0.16172617037828    3.89487237735145    0.49541789495709
O          -1.32395327829793    0.91965882777142    0.56779361261191
H          -1.10364493076100    1.85438205968364    0.36327396319183
H          -1.42871434145612    0.48339319986214   -0.30166302380851
H          -0.02175478086297    0.43815901542954    1.17188781773202
O           1.05893900373249    0.06251743785771   -2.68189270151544
H          -0.49526131979782   -0.16800518250775   -2.23898910974308
H           1.34065214381231    0.63673336360855   -1.93887087437693
H           1.59225485188031   -0.73271265498756   -2.60171696642923
O          -0.24047017048529   -2.21110551568689   -0.16411371512710
H           1.07823707094170   -1.57791458109200   -0.16453958843239
H          -0.66486296174783   -2.08481466954734    0.72941110692340
H          -0.78627924625326   -1.71346567955204   -0.79525513422737
N          -1.38886494281498   -1.65983713524397    2.18696572443288
H          -0.59640459161772   -1.38549535380543    2.75503112485529
H          -1.96535837482548   -2.29622919063803    2.72196751686413
H          -1.92432498739598   -0.82119341886731    1.99403165226190
