    26
        -50.46160202  Gyration_radius:  2.61755428617 Dipole_moment: 3.627
 S           0.54367617834402    0.28633207284238   -0.33335593141975
O           1.93382247003044    0.43274637868958    0.33228957863282
O           0.24742699642108   -1.16115296068414   -0.39667847635377
O          -0.43853975972459    0.97705645461185    0.49170947259519
O           0.61032374371061    0.81827315098626   -1.68043217274099
O           0.98454961576701   -1.57531689706381    3.53447934390465
H           1.56127149331045   -1.88162896981832    4.23595938176022
O          -1.17551640441477    2.53839665734565   -2.57744034490560
H          -0.89120451670866    3.43134199272459   -2.37767432126368
H          -0.43680866213149    1.95259327396291   -2.29366012942059
O           1.11603184598449    0.94941146065762    2.66841096165190
H           1.01595636169215    0.07012772998929    3.10274240026473
H           1.74357714326081    0.67181549120812    1.30651571028988
H           0.26890116011788    1.13212014846496    2.23208900406288
O           2.04017915568691   -2.32961479267283    1.18803533416701
H           1.33031076934282   -2.03549162118914    0.58217902050853
H           2.77130552548670   -1.73039483366483    1.01439968866650
H           1.32445166169034   -1.97414971706438    2.70083378053392
O          -2.64520606856436    1.02359806812788   -0.94919443269741
H          -1.95589927224629    1.04115547960557   -0.24542573798870
H          -2.37648299627957    1.74787971895372   -1.55446003475945
H          -2.14992015820021   -0.14433002461850   -1.72660404373990
N          -1.53264994708520   -0.90767160733140   -2.22843015807067
H          -0.79909994799957   -1.17419932664325   -1.48452307367532
H          -1.02492532684023   -0.45212522953513   -2.98503484364226
H          -2.06553105066122   -1.70677209789058   -2.55672996635286
