    26
        -50.46160224  Gyration_radius:  2.61706691237 Dipole_moment: 3.631
 S           0.18029401443634    0.67275154269312    0.04939393204800
O           0.14480721239126   -0.31617408605917    1.11874127490157
O           1.64290652779145    1.14698095243421   -0.13205042367899
O          -0.23874684147778    0.06986577770666   -1.23417934910784
O          -0.65512464148660    1.82406358550535    0.33004736263707
O           2.99681911836069   -2.33163344528876   -1.23075311330032
H           3.85932271785106   -2.54871081576089   -1.58773437077776
O          -2.34323872649399    1.84429738434293    2.35537673213406
H          -1.89897807833483    2.16658007167408    3.14088487147236
H          -1.69191678415869    1.93644541317925    1.62279343792411
O          -2.41405831215866   -0.71419945067744    1.61051684693103
H          -2.74323660474850   -0.22063706345977    0.24618525357507
H          -1.43356425385344   -0.75739373502079    1.52439607150477
H          -2.56503921212802    0.10946669348308    2.12237989707653
O           2.00582560497409   -0.26840617900603   -2.62706376856277
H           2.60468473698618   -1.66299801239178   -1.83807912918434
H           1.11365516751164   -0.20517347402420   -2.23032256817986
H           2.46637252432359    0.51507264885528   -2.31437319223963
O           2.76399473992817   -0.83343400743605    0.96995343673458
H           1.88104485396654   -1.01622840266696    1.32835152045218
H           2.90210343464930   -1.48214565390063    0.24071871054542
H           2.21858650103865    0.42574035274630    0.30488278236905
N          -2.74678776339034    0.28625309460682   -0.73298503701391
H          -1.73955215263915    0.15379332484526   -1.09394870905163
H          -2.86640202493272    1.28447085831775   -0.56876365851238
H          -3.44377175838913   -0.07864737471162   -1.37436880068386
