    26
        -50.45396365  Gyration_radius:  2.61563269098 Dipole_moment: 3.038
 S           0.51996245961533    0.24458332904646    0.67877626037319
O           0.59533910608663    0.13014289084150   -0.84443363884717
O          -0.95536755543442    0.53077040216151    0.98074475423685
O           0.88981977450053   -1.02345431492485    1.23848752213094
O           1.30052217673257    1.37902558602140    1.10534470541234
O          -0.55025894839342    3.24839827389899    0.46300887873563
H          -1.35551489300883    2.77913009515170    0.69608485559511
H           0.16707715472041    2.76303566013692    0.90473933537089
O           0.59083255507546   -2.69444463658859   -0.89135884209228
H           0.81778507159772   -2.23769936027323   -0.06423619766540
H           0.71987631927159   -2.03311976564439   -1.57601468321067
O           2.94269072751117    2.58181743835780   -0.69322275863903
H           2.48436943767240    2.22027713661133    0.08640809288993
H           3.74572405730953    2.07072617416724   -0.80221180862169
O           0.51583162327766    2.40986901632142   -1.81716908317450
H           1.45285098843958    2.65594915198538   -1.67106672215281
H           0.52587768857753    1.09031472072647   -1.31522306584677
H           0.01520246902355    2.90017927358199   -1.12153095212809
O          -1.69995407226453   -1.63874843283343    1.90206340071102
H          -1.97558203996333   -2.20487555256590    1.10383405743668
H          -0.79927999376771   -1.91455917277424    2.11425264221811
H          -1.37153464002732   -0.35794471848613    1.38293656721576
N          -2.16155493147965   -3.08299304056689   -0.23492611001068
H          -1.20312638671694   -3.09467684259616   -0.59490320326300
H          -2.76020538124647   -2.68085575237533   -0.94437566174903
H          -2.45138274711113   -4.04084756938044   -0.08600832492291
