    26
        -50.46160197  Gyration_radius:  2.61721604224 Dipole_moment: 3.621
 S          -0.62515058864533    0.27542932826807   -0.14231979849307
O          -1.22286967592114    1.49434228667387    0.36668699856097
O          -1.62163290273278   -0.40323917510399   -1.11363906509788
O           0.62100448088650    0.52059561402127   -0.85608620668242
O          -0.40898832911145   -0.66451980744521    0.97862463614676
O           0.50333708461134   -3.63611031158080   -1.56892298173694
H           0.25473660622262   -4.45342467881794   -2.00331418924006
O           0.07745473427860    3.78749850350876    0.33216871675574
H          -0.07970458274352    4.23323542081235   -0.50122049718443
H          -0.49389862953786    2.98579436474126    0.31862192629849
O          -1.42979451654321   -2.98766766786491    0.17190143169314
H          -2.15533646654861   -2.63217552801813   -0.34865987050348
H          -0.15436817164486   -3.49186768646593   -0.85037784875925
H          -1.02042639427201   -2.20460473323173    0.59226209854238
O           2.05031665703168    2.04520874900064    0.75064823342325
H           1.57264630018654    2.88393484642926    0.57258490034141
H           1.25902215931482    1.55012110290066    1.90852621683381
H           1.70843853108606    1.43234764776774    0.05922126401246
O           0.08499680424215   -1.28076924088832   -2.75975461158323
H           0.33461109440237   -2.17034490346959   -2.41605469216789
H          -1.04714299111263   -0.79169653281768   -1.86307989220477
H           0.68530927150540   -0.64899994260486   -2.33328845387797
N           0.47620284662700    1.14399471620367    2.57070739438969
H           0.81391439105625    0.90790036537224    3.49832752952614
H           0.10426820833575    0.28705708521397    2.03274376262600
H          -0.28694594096964    1.81796016739267    2.60369299837939
