    26
        -50.46160227  Gyration_radius:  2.61721894302 Dipole_moment: 3.623
 S          -0.23847948172426    0.54295068170681   -0.36698086874067
O           0.58390980021869    1.18624008097659   -1.51013748665135
O           0.55583151232679    0.58608132585938    0.85364973475590
O          -1.49597561618474    1.25279504783092   -0.23659512461493
O          -0.50880753358243   -0.85523168805476   -0.76533513295569
O           3.40526192629783   -1.49715052643303   -1.45090265431400
H           4.12115128308094   -1.62045373860271   -2.07602795153952
O          -2.35276863351428    2.12280197117655    2.10006166741804
H          -2.06925481569937    1.88782357480548    1.18694460558124
H          -2.00797693943731    3.00207398167934    2.26167477602893
O           1.10880153966530   -1.33595370559226   -2.82527665642431
H           2.56980487938964   -1.57069680776308   -1.96684012701140
H           0.46990951029512   -1.29828902921821   -2.08510747489153
H           1.08606770637155   -0.45572421015641   -3.21055211030475
O           2.86536387702946    0.92236619177572   -0.45281035977528
H           1.55392925381888    1.16418449640114   -1.19206324514829
H           2.36703593770086    0.77301387747686    0.36617513123918
H           3.17950943962268    0.03562677691631   -0.74726866831764
O          -1.09701958657304   -0.12782006813005    2.77882768281243
H          -0.32628040517933    0.08246616872294    2.20225540248124
H          -1.57521194001951    0.72675370282013    2.84561213190650
H          -1.95405188805822   -0.81440656478691    1.77589419875980
N          -2.47645266625984   -1.13488992379041    0.85905607552047
H          -1.69628433445276   -1.16152660101834    0.11547145160891
H          -3.11270758464888   -0.38849359367467    0.58375821523732
H          -2.95530525048663   -2.02454141092623    0.95651678734396
