    26
        -50.46160231  Gyration_radius:  2.61752958113 Dipole_moment: 3.633
 S           0.67278261384646    0.14083021063003    0.12303949666946
O          -0.14380967599188    0.63360354149961   -0.97835114666173
O           1.81447977602700   -0.72590738987258   -0.46192432911926
O           1.25278468432344    1.21335601755904    0.90751904753366
O          -0.12105911697314   -0.73600389645332    1.01063687752410
O          -0.54714933691849   -3.44992181390466   -1.93663828063728
H          -0.31105469921199   -4.29993303642718   -2.31112005377042
O           0.51300607781761    3.72267832673779    0.57843011685199
H           0.88707393764167    2.82176742990596    0.71208616927791
H           1.05422168170929    4.13166299644548   -0.09820197308853
O          -1.75973011912915    2.41393764419553    0.10299420974205
H          -1.30399267222367    1.74537253264124   -0.45900725663780
H          -1.56853951858387    1.76886950301148    1.42985958293388
H          -1.10297961512673    3.13935253094176    0.17818434290195
O           0.72947210726851   -1.22643898124372   -2.69006564837719
H           0.20593265952964   -2.04780241246391   -2.53800603384052
H           0.14179514157131   -0.48777244703647   -2.46543242083851
H           1.50574112247493   -0.98422837486907   -1.40036939882679
O           0.66005196123775   -3.21830812103526    0.44603554607772
H           0.28079369531286   -2.36855810292522    0.74862219573220
H          -0.19964266831059   -3.44562558423608   -1.01526630805178
H           1.58271593707175   -3.02081510061852    0.26331082343739
N          -1.18229712850496    1.21295663619091    2.30024426838771
H          -0.37625702185314    1.71916092297955    2.66324864464743
H          -0.80285039037473    0.29889379672246    1.87260334041710
H          -1.88148942262767    1.04887315160795    3.01756820770531
