    26
        -50.46160207  Gyration_radius:  2.6175216374 Dipole_moment: 3.623
 S           0.63258612134560    0.22959740685582   -0.18600050236465
O           1.49790601470261    1.17235206685093    0.49557419554786
O           0.33104552193247   -0.94057823671629    0.62781012098026
O          -0.61158286912315    0.91809876268768   -0.59220562349697
O           1.33070287103887   -0.24254842907445   -1.48468151882964
O          -1.74026426588309   -2.24027210490339   -2.81003848443203
H          -1.86142528728586   -2.63864077782086   -3.67322912660927
O           2.05933465822203    0.92852389304446    3.06013617630898
H           1.94986547019992    1.04777029234991    2.08895442307316
H           2.83275836634923    0.37356895425029    3.16881090141959
O           0.51592084970298   -2.63556127307432   -1.43355523411895
H          -0.34292347963180   -2.62133675054497   -1.91724972816164
H           1.09528782543635   -1.23199828205308   -1.57423570623151
H           0.30541572468405   -2.44732727572713   -0.50532875595356
O          -0.96562942527804    0.30283478965027   -3.15861008802569
H          -1.58405755104534   -1.28065728730947   -2.96586858569530
H          -0.95983475093087    0.60568836825111   -2.22816631418931
H          -0.03836591554555    0.27134783967693   -3.40951362044929
O          -0.44351957540668    0.01724487922089    2.95829507837518
H          -0.79744918817801    1.30378534610871    2.30051570349758
H          -0.25760534595145   -0.51921253611817    2.15311652295376
H           0.44957234279589    0.24623329860133    3.29478428093564
N          -0.86253492684827    2.17705682333466    1.63042507812611
H          -0.87842503472267    1.74287816110971    0.64368453639882
H           0.01180542531279    2.69451219061879    1.70459355820726
H          -1.66858356588950    2.76663985073234    1.81198269274111
