    26
        -50.46160211  Gyration_radius:  2.61721778512 Dipole_moment: 3.637
 S          -0.30026238993049    0.63141602726100    0.01531113054106
O          -0.85061250858539   -0.59519088426115   -0.54616083969967
O           1.04477790842807    0.39018917370961    0.58045338442492
O          -0.22240008532891    1.70193712652783   -0.95939276082587
O          -1.20588637987570    1.08468708180120    1.18642270113276
O          -0.50187284113392   -2.04468169950679    3.39051041608976
H          -0.74248613486919   -2.19541256784164    4.30583844676180
O          -0.62898603611633    1.26790603729963   -3.52779330775621
H          -0.52980576452225    1.51903497488278   -2.58095215294498
H          -1.56011034287537    1.37116657526595   -3.72821740442939
O           0.70916086190529    0.34136848268841    3.22189282039216
H           0.04982721584122   -1.22910252793870    3.37853229319510
H           0.97365665692676    0.33245429654071    2.27989718868927
H           0.01310885194590    1.00219259731091    3.27213299928899
O           0.51082124324585   -1.01734266140936   -2.76329147041068
H          -0.04455876641425   -1.07015154661855   -1.95120121610560
H           0.05339500453343   -0.34553590314373   -3.31329878074528
H           1.62030109060487   -0.18271173093644   -2.22855025843705
O          -2.30235863850023   -1.15017675629476    1.62969918013857
H          -1.71149290168905   -1.59583244963842    2.28075863227055
H          -1.73848070476964    0.25581752726677    1.45427331548667
H          -1.96219906035658   -1.38688576069717    0.75237788710976
N           2.23462464607276    0.55612181065366   -1.68779516041766
H           1.97569850810280    1.48325793548509   -2.02097348145921
H           3.23245174191696    0.38901450620512   -1.76979207444095
H           1.88368883544462    0.48646035538428   -0.67068148784652
