    26
        -50.46278521  Gyration_radius:  2.54827752373 Dipole_moment: 6.692
 S           0.05775688731768    0.09475977455588   -1.23444313791484
O           1.22573883141145    0.95176706454159   -1.24126248989575
O          -1.19570780610731    0.83763225550158   -1.06460246862258
O          -0.05157486740863   -0.61473698021279   -2.60947214141428
O           0.14934971962902   -0.95036581965614   -0.21116221228277
O          -0.06456792505430    1.46293038841367    2.84258501305114
H           0.77398851971634    1.57600359191421    3.29239528573796
O           2.30664492001664   -2.41426588098197   -0.69192268297000
H           1.53462768644056   -1.87157734409007   -0.42236203164066
H           1.98908668789334   -3.31642320369466   -0.75715521651659
O           2.49566379504391   -0.80141594462413   -2.83768143165099
H           2.49574437134698    0.03888321225188   -2.35419536603314
H           2.66372952891465   -1.48362129376346   -2.15509159575815
H           0.90367052312568   -0.76859183759318   -2.87275615581644
O           0.20147272632090    2.66356844118947    0.48115432537178
H           0.02494397100811    1.94625623937901    1.98616132747103
H           0.77506071334003    2.11965104113088   -0.09612669909581
H          -0.63105800690844    2.68821611991909    0.00058436779629
O          -0.92034170241705   -0.95885692959615    2.19062574858040
H          -2.08271113198879   -0.46159032615140    1.47460262477200
H          -0.38393082588339   -1.10721793303340    1.38039465874437
H          -0.56052844516893   -0.12603494411001    2.57976409436269
N          -2.79941979466346    0.00873260017802    0.76292867958196
H          -2.16496915361490    0.34918613486082   -0.04999375200521
H          -3.26785463214206    0.80062422651045    1.19140600342892
H          -3.47481459002767   -0.66351262286713    0.41562526271111
