    26
        -50.46278512  Gyration_radius:  2.54874536055 Dipole_moment: 6.705
 S           0.98303234155597    0.05348200445224    0.75774578619005
O           1.83237774555976   -0.79083840150965   -0.05727360806284
O           0.11427115911063   -0.70993794517870    1.65996430704767
O           1.87794258534897    0.93144937927218    1.67165651795003
O           0.16816769013558    0.96084239317979   -0.05495996668758
O          -2.05966515001870   -1.79061203012003   -1.67209042600857
H          -1.84793444199388   -1.94779012100260   -2.59334555864404
O           1.78590582293360    2.48363927707463   -1.50137899268800
H           1.53983263844338    3.38519397002067   -1.28784774496097
H           1.13531240099188    1.90737253683735   -1.04548340290132
O          -2.34639347485904    0.68427513125947   -0.77033479016258
H          -2.33222986071373   -0.18614547188125   -1.23595728768469
H          -2.50660507072681    0.26763609959471    0.61208223275832
H          -1.39942994096454    0.92903183897994   -0.67224769259821
O           3.68589350071599    1.15720314158079   -0.13311519238923
H           3.40526819328553    0.26215519949776   -0.37790321327841
H           3.21270751494794    1.74753444045038   -0.75532109367450
H           2.68137713405020    1.12211839648789    1.10295070411759
O           0.02083996053420   -2.69287564512592   -0.27591073585114
H           0.77873386687688   -2.08151371831800   -0.37470738996007
H          -0.15185309164329   -2.67676865747462    0.66972320788878
H          -1.30453681102752   -2.16437776451288   -1.15746492414834
N          -2.38555326970828   -0.11952010545503    1.64985701267470
H          -1.32719910062930   -0.35479866514284    1.71232777960068
H          -2.93593170061990   -0.96085781305116    1.78883164994464
H          -2.62433064155872    0.58410252005769    2.34020283153339
