    26
        -50.45300980  Gyration_radius:  2.43485590285 Dipole_moment: 5.196
 S           1.67682776848562    1.05511891250931    0.68024451671136
O           0.65945123706860    0.39148157758120    1.63593423953144
O           2.28260811569934   -0.11475564429356   -0.11189868291945
O           0.92455738188490    1.88093545625507   -0.25245564030632
O           2.68066250227073    1.72022431976178    1.42206009377540
O          -1.01700116493697   -0.79526491384023   -1.93250544880948
H          -1.63854665288675   -0.89687438273779   -2.65424639145862
O          -1.55632006631294    2.84557095722014    0.01459693553499
H          -0.62004145502804    2.65653668481160   -0.19102292039975
H          -1.55229465735505    3.54743694546097    0.66700393247424
O          -1.61431666218508    0.22554300797919    0.51643270507118
H          -1.48447200779813   -0.15562757464103   -0.37519222468633
H          -0.25782148281109    0.30955990378058    1.18472512233197
H          -1.80992537973045    1.17580334288923    0.36553922816739
O           1.04029239653475    0.68320231871188   -2.60190529059586
H           1.86022302723312    0.18918389087899   -2.51874855265475
H          -0.28046998690586   -0.21785884746002   -2.27200333712312
H           1.01544027827016    1.27328238480488   -1.81938780440360
O           0.74368795503094   -2.08465162435172   -0.27007114753654
H           0.06346045417696   -1.82847677067588   -0.91471621274432
H           1.65977488814367   -0.94956144067351   -0.15729035085773
H           0.26927524948061   -2.21106277282860    0.59793137636261
N          -0.62823804568215   -2.23332296161355    2.02032450440757
H          -0.05603780899133   -1.68480706454604    2.65093985247674
H          -0.89718710254774   -3.08859911138702    2.48909942207334
H          -1.46358879110228   -1.69301660360144    1.82661206557940
