    26
        -50.46278514  Gyration_radius:  2.54844138475 Dipole_moment: 6.704
 S           1.04019060642843    0.58896780758945    0.33828784111492
O           1.62358587219037   -0.75448281965118    0.25984578170559
O           2.17365936302518    1.56904843781758   -0.06329041452787
O          -0.02270673680282    0.72004771778195   -0.66217732758195
O           0.57805527982583    0.92744038768920    1.66881392340669
O          -2.20587110572163   -2.22394450379319    0.65073261010041
H          -2.99887475275973   -1.93047001137722    1.10158369547621
O          -0.89455352873699    3.22350363200186   -0.64887462666294
H          -0.66337360848700    2.26971306583068   -0.65517421938274
H          -0.80313435798469    3.52639212857888   -1.55379547546660
O          -1.52892400587392   -1.17491706082024   -1.68622367790770
H          -1.12745950608805   -0.33369998365520   -1.37378329798980
H          -0.26762373358367   -1.89134923562218   -1.75390121281370
H          -1.93580855947188   -1.57217511837336   -0.87921666485145
O           1.06542824291193    3.52516314510874    1.17030156885035
H           0.30474411708402    3.67692648819614    0.57212639465206
H           0.76706205803313    2.83399016094516    1.78109783895910
H           1.89849659788899    2.43479114258022    0.36111402879125
O          -0.17000008594936   -1.53811350858863    2.22390793337296
H          -1.45791196951889   -2.00478608022087    1.25690594733948
H           0.66333531617098   -1.89360147956401    1.90227444674812
H          -0.03034375526880   -0.57029698908625    2.18160121189918
N           0.76267218777742   -2.29133999765773   -1.61010684450538
H           0.73559276281652   -3.25039788777381   -1.27912399492491
H           1.18152824839680   -1.64665709286751   -0.84339369464059
H           1.31223504362614   -2.21975235526077   -2.45953175126200
