    26
        -50.46278523  Gyration_radius:  2.54832634776 Dipole_moment: 6.691
 S           0.38349532697323    0.58135043534470    1.02498178770156
O           0.38336799267558    0.64139232850441    2.57495933197754
O           1.68757809446657    0.02808590445912    0.64402303837976
O          -0.67752983899021   -0.34718121471888    0.62521936235335
O           0.16245729739117    1.91514820794133    0.50472873966434
O           0.19292853489805   -0.33586869975386   -3.17473214693374
H          -0.43754411468549    0.15822497494115   -3.70068953712833
O          -2.99127630620450    0.57465060571955    1.53352226348997
H          -3.35998146348176   -0.14030633753695    2.05484510237908
H          -2.17916748834872    0.21688913955337    1.11440200390854
O           1.50533989128956    1.46515110785600   -1.71780323307568
H           0.70585109087423    0.33955744901762   -2.66909250457210
H           0.91813545577810    1.79981479296816   -1.00987273350372
H           2.23021428243699    1.06503496876317   -1.22894235925705
O          -1.41430398536892    2.46961427622729    2.61197144400516
H          -0.99214950254776    2.75543009431107    1.78739203095764
H          -2.18503417523126    1.93617309160513    2.32745073533724
H          -0.29522017436722    1.34949320155598    2.78371189168275
O          -0.64936293971758   -2.07174577921349   -1.35878775244463
H          -0.45169669471923   -1.49247392325441   -2.13342803932970
H           0.68552923815600   -2.34978404936216   -0.85885306382604
H          -0.87924754522165   -1.44878089215804   -0.63393442556326
N           1.69729133525206   -2.32240083666365   -0.39237733060832
H           2.42362949212304   -2.38189227091911   -1.09874724137921
H           1.80822719863440   -3.05537891868976    0.29978759742847
H           1.72846899784374   -1.35019767615492    0.09026505813377
