    26
        -50.46278527  Gyration_radius:  2.54848361073 Dipole_moment: 6.695
 S           0.34308131543133   -0.07632090423495    1.19121122081269
O           1.70329028929069    0.36905455932879    0.96744018613946
O           0.16976740234946   -1.51649088247327    0.97234537936533
O          -0.02896219264199    0.17613268400420    2.67584227414067
O          -0.61935569787506    0.66269108002151    0.36948225980017
O           0.57707706925377   -0.74834858228668   -3.05712676332691
H           1.06738589616473   -0.10959702839387   -3.57660408248042
O          -0.43125919548427    3.23890769895490    0.96518943613378
H          -0.50137937783830    2.31114673747628    0.65281940187735
H          -1.31816294777647    3.50484288512548    1.21338023222653
O           2.12988315685241   -1.35436857733012   -0.98054928252900
H           1.76229537104898   -2.07446060639314   -0.46020516675002
H           1.17386670005087   -1.00046208648390   -2.31204138014548
H           2.14295711392555   -0.60714844003332   -0.34854320370209
O          -1.71164569356602   -0.07048600426498   -1.90663443606980
H          -1.85446769879956   -1.34208861835329   -1.21869678139028
H          -1.36142662494284    0.40684893525030   -1.12194912813707
H          -0.91878574778665   -0.24161867579216   -2.46931564431552
O           1.35047285096571    2.33568904201380    2.76797200897254
H           1.92670788575138    1.87087169217615    2.14210219633586
H           0.78275181521255    2.90655025505621    2.20993981243564
H           0.45491149064056    1.02541637385396    2.89990394096948
N          -1.76179837837730   -2.23635691915497   -0.56054371234881
H          -2.62020704468214   -2.41388909343237   -0.05033390150035
H          -0.97052485777889   -1.96334766228694    0.13128541005321
H          -1.48647290915929   -3.05316783250615   -1.09637026690351
