    26
        -50.46278525  Gyration_radius:  2.54856865157 Dipole_moment: 6.695
 S          -0.18124171470166    0.77799668980125    0.94944404557891
O          -0.67819368677645    0.57292492606182   -0.41390142156608
O          -0.32888784126966   -0.46348996077258    1.71665205109812
O           1.17303153176443    1.29219815584693    0.96222785580686
O          -1.11628383929393    1.81187754986160    1.62996145086106
O           1.74310690645985   -2.34093509406769   -1.31337301632700
H           2.43490727421224   -2.07410933717743   -1.92042088591361
O          -0.61061677210107    2.89417413875675   -1.69277366615513
H          -0.59694855468887    1.99592907144916   -1.29760978764390
H          -1.50533227524034    3.03398650504870   -2.00719469400058
O           0.22075820674103    3.79417270106252    0.70315402925261
H           0.97647304322840    3.19458298421912    0.79901809616050
H          -0.03497045482303    3.72670612589562   -0.23999924053263
H          -0.72109852972960    2.69573413525678    1.36913179662753
O           2.26666110322142   -1.10563751725323    0.98670715627203
H           1.67730077512156   -1.39639493878239    1.68853163642496
H           1.96569963957636   -1.91450395267101   -0.45114828374800
H           2.06045702699576   -0.15247444102782    0.90356893256515
O          -0.77679430092684   -1.66990822703858   -1.78158950497783
H          -1.26088189395456   -2.20678153102214   -0.52220045932435
H          -0.75471810351356   -0.73794728051802   -1.46960229228033
H           0.16684875975476   -1.95991563502175   -1.76892324794001
N          -1.49840740140216   -2.42714144647783    0.54419056111250
H          -1.04713609134361   -1.59858962751566    1.08191871102190
H          -1.07446605911737   -3.30169048005857    0.83653657959811
H          -2.49926673818448   -2.44076350382532    0.70769359798353
