    26
        -50.46278519  Gyration_radius:  2.54848247144 Dipole_moment: 6.700
 S          -0.35192483553794   -0.13608699516770    1.18309323736293
O           0.22635483865896   -1.47464575704674    1.02293429222853
O          -1.77353848897983   -0.09842622363500    0.90719867934483
O          -0.11887266366852    0.25310389981544    2.66665300608291
O           0.39307520449478    0.82068020615911    0.35994435008021
O          -0.23250181452606   -0.96605948909893   -3.04137592745487
H          -0.86203108030083   -0.50285737815324   -3.59580929357682
O          -0.53211403071643    3.25608241110284    0.85023488369250
H          -0.19316460460498    2.37682622862062    0.57587926351534
H           0.23501499136842    3.76867159195895    1.11044373110967
O           1.73207051782546    0.35708737597783   -1.85417928759278
H           1.04008261219307   -0.04595361710914   -2.43160092297477
H           1.23314807695300    0.73907602987658   -1.09817892495135
H           2.20097984120064   -0.80177214728725   -1.11507012755812
O          -1.62861953412268   -1.92556942333424   -0.98694790350976
H          -1.87354299820589   -1.19504399515296   -0.38340998436928
H          -0.76187227528445   -1.35491143016701   -2.30417963298785
H          -1.09346337285949   -2.49871445551400   -0.43066052694865
O          -2.05004457902126    1.94000257434867    2.64017969906870
H          -1.64616395338616    2.63107807125681    2.07547122897047
H          -2.45047368947492    1.31368570219533    2.01794855985199
H          -0.82848478656854    0.93869223789531    2.84527183132560
N           2.33939408010741   -1.66615617791557   -0.42537681569949
H           1.47784538538939   -1.60731967975742    0.23286250238062
H           3.19327463209356   -1.57842472384431    0.11486494583075
H           2.32557253688899   -2.54304484613164   -0.93619085328842
