    26
        -50.46278530  Gyration_radius:  2.54829939298 Dipole_moment: 6.691
 S          -0.30823230821231    0.93372862287583    0.75471078732513
O           0.52747858348907    0.71539096192691   -0.42908764723359
O           0.03551652764485    2.34129141121709    1.30837453592960
O          -1.72112451880803    0.88767374060362    0.43800229856990
O           0.07322576546053   -0.01616210916658    1.80546603196136
O          -0.50962778439683   -3.00387212961502   -0.96736623480485
H          -1.09898978103382   -3.12485728051391   -1.71326197334043
O          -0.03080242031258    2.59674611124926   -2.21158902198810
H           0.80961544448330    3.01308348561956   -2.40990323839596
H           0.17219874239130    1.83776035440598   -1.62344035548385
O          -1.64695158005899    3.48568311539775   -0.25212134651531
H          -0.56666842859111    2.95280613763497    0.78979510584660
H          -1.17382254029990    3.36996829298004   -1.10193532965203
H          -2.15260751172963    2.66677691838871   -0.13569159973081
O           1.67237943887053   -1.51977455726840   -1.20763983959642
H           1.27030515793136   -0.62626452860064   -1.12869356779690
H           2.01372997933365   -1.62264369145741    0.20064117958604
H           0.90328680413618   -2.13589120477774   -1.26667215157542
O          -1.91979540177464   -1.70283712598737    0.87822431691316
H          -2.03381224984432   -0.77126808491226    0.60021535627807
H          -1.04949748443590   -2.55951039733982   -0.27012346829702
H          -1.43794799112318   -1.62581251652174    1.70671451506445
N           2.06514855299821   -1.56144941077515    1.31201755670631
H           1.25388513191184   -0.88645855583398    1.56774505215033
H           2.94884466939750   -1.17298547697064    1.62324475954813
H           1.90426520217544   -2.47112208248855    1.73237428871432
