    26
        -50.46278483  Gyration_radius:  2.54821580713 Dipole_moment: 6.685
 S          -0.88968067497755   -0.60477217624769    0.61571897103970
O          -1.58584097290379    0.59875093846130    1.02312080713190
O          -1.27320457011948   -1.75661125328184    1.58095528627164
O          -1.27166620736704   -1.05932487778652   -0.72557810975422
O           0.56559617647781   -0.44647955023631    0.68248651394263
O           0.79327643331343    2.18719328712866   -2.18855185881382
H           0.96228865111025    3.07599595568643   -1.87280843976113
O           1.23717652172775    0.13770654831005    3.17977302229413
H           1.87326069772794   -0.53322791377236    3.43310054189829
H           1.04876191494460   -0.00978984536146    2.22800984878040
O           2.21436720341147    0.14388152707842   -1.27884010354831
H           1.42376965573995   -0.84180341846396   -1.99572545898361
H           1.83222881914254    0.98569417492191   -1.62490336553494
H           1.76257366808964   -0.00022696431201   -0.41785763873837
O          -1.68348794675267    1.59307643110446   -1.41477819813077
H          -1.98157481554115    0.75373319750667   -1.77692088304769
H          -1.68484169169423    1.43184514932107   -0.44918176117371
H          -0.14059501669520    1.98783836196493   -1.93700218867343
O          -1.40339826816283   -0.17265897908504    3.59317390126725
H          -1.70418832199431    0.47151917005601    2.93407645328207
H          -1.37874802332179   -1.29764008886224    2.46618621667443
H          -0.44801582433046    0.01152031446749    3.70678343404147
N           0.63411073585906   -1.52534527300337   -2.38405014443204
H           0.93852869350129   -2.49270504967110   -2.36949296359631
H           0.34764215182580   -1.25247863274828   -3.31871564145758
H          -0.18833897901887   -1.38569103308295   -1.68897822095141
