    26
        -50.46278471  Gyration_radius:  2.54867088013 Dipole_moment: 6.697
 S          -0.45186409225382    0.92243436208414    0.69843228177581
O          -0.61765008492447    0.37715730062467   -0.65162489376712
O           0.81171143987151    1.61349185608963    0.85368546462915
O          -1.60711171917943    1.93116971537387    0.93230811831761
O          -0.64480861601922   -0.14545054052655    1.68533273755432
O           2.19132127093041   -2.30144714299992   -0.40086362252155
H           2.96888175389724   -2.07274631756825   -0.91208418507309
O          -0.48662544128386    2.38027368602428   -2.38344732604823
H          -0.47628716541381    1.59115307980322   -1.80013560217121
H          -1.29692823833976    2.32557892477024   -2.89270225658080
O          -0.29321921845480    3.85473697090543   -0.14035728744614
H          -0.32808963497458    3.56302491869785   -1.07476432636129
H          -1.24982486059235    2.79135454870985    0.56101002073643
H           0.47619436891403    3.39844992291278    0.23330027458629
O          -0.22309206404259   -2.08928207534177   -1.47107745922654
H           0.71883052561646   -2.24065708930327   -1.21703896600031
H          -0.91261376305387   -2.41805634030149   -0.23557974714751
H          -0.35191333005847   -1.11906879270132   -1.37977663700382
O           2.09508808681361   -0.56041861716961    1.61225847812517
H           1.82299733949262    0.31955785918163    1.28153292418875
H           1.40217696621681   -0.78154303530992    2.24101726232466
H           2.18407489200526   -1.68016291527426    0.36634450825409
N          -1.35056361238718   -2.44665415004896    0.78865102388891
H          -0.92041568649356   -3.17751649536645    1.34622479715778
H          -2.35771615086054   -2.56288459944421    0.75967324558888
H          -1.10255295735705   -1.47249501951589    1.19968120115556
