    26
        -50.46278512  Gyration_radius:  2.54867679519 Dipole_moment: 6.693
 S           0.12573395993482    1.23379195210401   -0.03619293707478
O          -0.15945241187386    1.04992635883235   -1.46329012222285
O          -0.59849790809496    0.22482369025992    0.74169274581256
O           1.54370201002935    1.23386624800687    0.26068966441098
O          -0.46503818225727    2.61778491476944    0.34057944635141
O           1.00364494641839   -2.87664829818052   -0.97709082279062
H           1.63712542147681   -3.32539748154312   -0.41534648364734
O          -0.24200148855539    0.73970381694766    3.31778408874148
H          -0.35590754023080    0.45757905324889    2.38472160893899
H          -1.12499832963423    0.81817425472489    3.68260439367472
O           2.10855211375370   -0.53723034599292   -1.60746675096780
H           1.58561682030860   -0.05929799879819   -2.25747232684947
H           2.09320438160603    0.05616660805036   -0.82920271270341
H           1.43543383452169   -2.02914621262123   -1.24185898986124
O           1.10278461478046    2.86241840499434    2.35500792729885
H           1.72377408224889    2.36680841638464    1.79953736963682
H           0.06242481363220    2.88831041261834    1.14936107597354
H           0.70206311655091    2.19046617505766    2.94439908385758
O          -1.36500156806733   -2.17072426816192   -0.02267716231713
H          -1.75270509025928   -1.46607320381968   -1.23178261412845
H          -0.51042704931292   -2.57964734436705   -0.30048578232802
H          -1.10441514148254   -1.35823977450887    0.46552154769648
N          -1.86568912955400   -0.76480302243739   -2.09059195261723
H          -1.18000530596202    0.04278825292504   -1.85173521035385
H          -2.81206341597069   -0.40617926670350   -2.15700050079268
H          -1.58785754407035   -1.20922133187756   -2.95970461384300
