    26
        -50.46274088  Gyration_radius:  2.55214605579 Dipole_moment: 6.512
 S          -0.41256554737040    0.41560255698137    1.11316931498698
O          -1.83033631641884    0.15193836010472    1.03600085963187
O           0.36670548704507   -0.72592377617515    1.61919956719017
O           0.14258233557842    0.84441197026134   -0.17399317343738
O          -0.16115173216852    1.56712361698021    2.12482109866191
O           0.10180015150807   -2.43826732582280   -2.17404310501634
H          -0.55244626596991   -2.43952083106307   -2.87407860335140
O          -1.15045994017963    3.04130541654169   -0.90931311674365
H          -0.68934798314849    2.19465858638801   -0.72746835033178
H          -0.46334172366659    3.69138921441614   -1.06526940030971
O          -2.34620750186914    2.75188808428432    1.48832306768595
H          -2.08925623831253    3.06957583607181    0.59851834903236
H          -2.66336741762032    1.84673185172142    1.34503512062949
H          -0.96347584847469    2.15944726360938    2.02142545208659
O           1.76018805797819   -0.40170149516061   -1.82348994303971
H           2.34680425291319   -0.93261248939885   -0.61015881246582
H           1.19187478632382   -1.15157290946200   -2.12212575047965
H           1.13893248564210    0.20546884503086   -1.36175884127846
O          -1.23339991078420   -2.29798859604776    0.13376954582397
H          -0.40634161792453   -2.44377784555799   -1.32846414787587
H          -0.58535141890777   -2.10090405995091    0.82563682528402
H          -1.84277943219813   -1.54809072391380    0.21343810224644
N           2.57316593446397   -1.29487885441050    0.42156441105948
H           1.68417676507243   -1.03676043535974    0.98335942451813
H           3.38159300213142   -0.82572352245634    0.81545968929663
H           2.70200563594194   -2.30181871809639    0.43044239596763
