    26
        -50.46278519  Gyration_radius:  2.54872247717 Dipole_moment: 6.702
 S           0.51164231255738    0.03277049307753    1.12955787566290
O           0.69921103123231   -1.40353279402230    0.89766407005133
O          -0.72210270149854    0.33633572607060    1.82531732289778
O           1.70726613781193    0.48051212971512    2.01069568401207
O           0.61566987916977    0.75152320568811   -0.14335150874693
O          -2.28924327893087   -1.14447823171029   -1.92203224230483
H          -3.08371476931982   -0.61830409587972   -2.02266247511549
O           0.50825328723871    3.35464565259077    0.34674932298858
H           0.48640998285172    2.40655957986831    0.09400331073989
H           1.30391685906025    3.71739930236940   -0.04592429971619
O          -2.05311209074335   -1.63199529772389    0.68482289298969
H          -2.22996863650236   -1.35676683624408   -0.95950417915058
H          -1.33914221057826   -2.25068383656355    0.86394609076874
H          -1.76364876216792   -0.81926230379762    1.14702824285113
O           0.42800272460411    2.51632327313153    2.90249724674806
H          -0.34509061375321    1.93821441842482    2.81344439876151
H           1.36861836394192    1.30692756402197    2.46643366250793
H           0.42544214728177    3.06566629738903    2.09143294758717
O           0.08067589963237   -0.14318777173911   -2.55676960334017
H           0.25315622082798    0.38970188434087   -1.74894357122807
H           0.80518739474313   -1.31105092508145   -2.08643203999936
H          -0.85461112405268   -0.44462220480275   -2.46283992530514
N           1.27980799636821   -2.12924676606965   -1.49733852737400
H           1.08650421375668   -1.84668515844059   -0.46694766634899
H           2.27964924780603   -2.17484943730440   -1.66132870083771
H           0.84122047858804   -3.02191385777787   -1.69951831917235
