    26
        -50.46278486  Gyration_radius:  2.54872383054 Dipole_moment: 6.700
 S           0.88525293067418    0.41775002866291   -0.75932214113141
O          -0.22876599514145    1.14312106773369   -1.37967185255202
O           0.64059176571662    0.28324974158806    0.67935092632710
O           1.14705250401627   -0.86079329517236   -1.38779555371155
O           2.13159048425271    1.32562282880320   -0.93129263463318
O          -2.74157853919917   -1.61782983759641    0.35843916087609
H          -2.67339926341622   -2.54681084222882    0.58343231335562
O           2.77866748301588   -0.81790968155722    1.79500201568053
H           1.93454656446637   -0.47128901331604    1.43380747536564
H           3.04602186994440   -0.20599412400596    2.48279353820875
O          -1.66921244213468    0.22301606993098    1.93360843109650
H          -1.97878103741417    1.32088519392523    1.03412508816342
H          -2.12500274458149   -0.53079272735890    1.48776359664232
H          -0.73099365654894    0.14872986923621    1.65003831838967
O           3.74261200089855   -0.65725510164962   -0.71211211721716
H           2.90084756818099    0.68461326127987   -0.87756062997856
H           3.63080282677202   -0.84183439757038    0.24338655613997
H           3.02920098773548   -1.15035630437484   -1.14532800083518
O          -1.39564414209383   -1.31053483563386   -1.91845538152804
H          -1.50277005088254   -0.42236000536939   -2.27107739138942
H          -0.43387750913244   -1.36642785250644   -1.74632638147913
H          -2.27685230347011   -1.51812549351727   -0.50705446183432
N          -2.04355758435577    2.05116020667628    0.19499446361601
H          -1.85234261841352    2.99653015733128    0.50861144358245
H          -2.94883760373489    1.99977087842002   -0.26094443019326
H          -1.26557149536884    1.72386421072777   -0.48841235199392
