    26
        -50.45300960  Gyration_radius:  2.43478685056 Dipole_moment: 5.199
 S           0.91261810963333    1.85752968043807   -0.32467074506992
O          -0.37811202778669    1.93742136182395   -1.15565852536651
O           0.44731099207256    1.38477753877788    1.07130540920973
O           1.73997904756358    0.80179438978883   -0.88930551445080
O           1.51825249617829    3.13217136032918   -0.23096147589418
O          -0.83138605728572   -1.86327587194536   -1.11245644160523
H          -0.91742855233611   -2.76034394306637   -1.43710925545544
O           2.99191685581977   -1.18851318787916    0.38650285607515
H           2.68418590386312   -0.47693152791700   -0.20820119820248
H           3.74051784927798   -0.83258186270257    0.86722358787476
O          -2.17049860708821    0.39797766208175   -0.32402303736849
H          -1.13915314103008    1.32108893812555   -0.79809564427893
H          -1.89392459687362   -0.49135918718966   -0.60044783544183
H          -2.17131416415927    0.39072170709338    0.67313945331601
O           0.35033603162706   -0.29483080952275   -2.84721572855172
H          -0.22364851698348    0.43362614748641   -3.09852548055716
H           1.00094752670274    0.09363369938323   -2.22516906956020
H          -0.36890681330324   -1.34650662942008   -1.82680438421056
O           0.44508338607479   -1.15232376882848    1.18038847356738
H           0.43149746769080    0.36018032783010    1.11755071778010
H          -0.02006649865532   -1.48806625101444    0.38774076310521
H           1.39567144204352   -1.33997069588822    1.02125900847400
N          -1.97703457228001    0.28541537283744    2.34033433973564
H          -1.44422497426774    1.12017430301663    2.55311500394893
H          -1.36650660646328   -0.50826873238635    2.49699892218399
H          -2.75611198003289    0.22645996874935    2.98308579073980
