    26
        -50.46278499  Gyration_radius:  2.54907171063 Dipole_moment: 6.698
 S           1.09040646351418    0.24904918930440   -0.53494910958256
O          -0.00558408435696    0.97194766718221    0.11614998027264
O           1.57402752774004   -0.81204453060538    0.35506342901395
O           0.71517097934359   -0.24069509845606   -1.84568515118520
O           2.27030615905941    1.24420818950461   -0.69022107344073
O          -2.32440579523695   -2.12099778455587    0.60053705379943
H          -3.07600178173703   -2.13113138916970    0.00624333640564
O          -0.68486109206824    3.02083133208445   -1.42333980172391
H          -0.52672455778257    2.24448851315465   -0.84422881079141
H          -0.61190159641622    3.79324221064359   -0.86029653633834
O          -1.68698581592048    0.08094203685036    1.93011301208439
H          -2.08260994599748   -0.70187736310032    1.47731483901538
H          -0.48182068128996   -0.49717109315375    2.49972627104517
H          -1.21451041239107    0.56757127695206    1.21863944645557
O           1.36990266253078    2.13653426498517   -2.91913932744815
H           2.08064882052665    1.70276314736629   -1.56165493093997
H           1.04998085818412    1.22862530408975   -3.03391184546383
H           0.59610702885462    2.63448540706885   -2.58336600888062
O          -0.17801722336432   -2.54065566740008   -0.91828768877487
H          -1.53705843127163   -2.31765514080099    0.03814791751812
H           0.02500975391728   -1.73648167095182   -1.43777462421200
H           0.61304187508361   -2.66160039105938   -0.38528317474897
N           0.52332312968501   -0.93602719640982    2.69575638281142
H           1.02067355289176   -0.87518237513645    1.73221220015491
H           0.44452104873258   -1.90597927938344    2.98394912007383
H           1.03736153774685   -0.39718954893184    3.38428511473807
