    26
        -50.46278528  Gyration_radius:  2.54836576267 Dipole_moment: 6.690
 S           0.01156590178954    0.73660412310396    0.99659068455797
O          -1.42638408521721    0.90597827679789    1.04484483098492
O           0.68115178731749    1.91941181838380    1.74417574464008
O           0.46725633922106   -0.47964777908762    1.67834996854467
O           0.51986499310584    0.74667649169640   -0.37793865696170
O          -1.16367884744532   -2.59903350795432   -1.45534139403124
H          -1.91353557777452   -2.46699760265519   -2.03714274588323
O          -0.12551909982776    3.06225558801272   -1.49613103667514
H           0.70408429772282    3.43499690674632   -1.79904010959266
H           0.08416654416763    2.16325161432964   -1.16301482699949
O          -1.11083934207200    3.57517346937133    0.95480207467771
H          -1.69748317980577    2.80535438488281    1.01013361640719
H           0.07943274569928    2.69618548328800    1.54422091896318
H          -0.86194071615001    3.63354293007410    0.00918206221931
O          -1.91416113135934   -1.68122276085592    0.92858663745124
H          -1.94422292017380   -0.70319642902846    0.90413972279512
H          -1.46175002012022   -2.29753209289012   -0.56358724528047
H          -1.25442015039393   -1.86231215415975    1.60425917651703
O           1.11266949740734   -1.31657948570595   -1.89529790206372
H           0.26506269391159   -1.82280795895474   -1.89567366476254
H           0.87814013929694   -0.43838240391507   -1.52089689120277
H           1.73780865894159   -1.80308360121454   -0.67843593571996
N           2.04376449826850   -2.02912323571078    0.36924289965487
H           1.42088052823823   -1.36822824675316    0.96427132837364
H           3.02266010227585   -1.81486103113775    0.52583327131238
H           1.84542635383983   -2.99642278807394    0.60386748147491
