    26
        -50.46278527  Gyration_radius:  2.54857267299 Dipole_moment: 6.699
 S          -0.57911846621570   -1.04289962091906   -0.34376482566005
O          -0.85449823207783   -0.28390828812611   -1.56833890534302
O          -0.54966516689256   -0.12949424132958    0.80202730053195
O          -1.79289249475218   -1.98886643309081   -0.14772537650029
O           0.62673878669779   -1.84084456653556   -0.43315831062232
O           2.32091581357383    2.13461625017239   -0.54086008373359
H           3.14966120214745    1.99752937897454   -0.07968924016759
O          -0.28377064429482   -1.56095266542799    3.01756760047472
H          -1.02481734525104   -1.30814339640321    3.57054193633743
H          -0.31515063336274   -0.97260595604773    2.23267515685533
O          -0.42872334589511   -3.61753814660461    1.28830465497387
H          -0.33412165623937   -3.07171448173654    2.09621803616944
H          -1.42500554170888   -2.73109405952342    0.41722340070699
H           0.30439448491680   -3.34351093356397    0.71622281836508
O           1.88545023319562   -0.08608791352785   -1.94420948444947
H           1.12476713366536    0.00246482457650   -2.52540373939148
H           2.18559649967637    1.32666816771092   -1.09199054499309
H           1.62184061734446   -0.81011691287820   -1.34069605786127
O           0.06636784887158    2.42586755540951    0.82010809395641
H          -0.76554156026799    2.45059512912134   -0.36997254601081
H          -0.11813553128347    1.48307167718110    1.02868436535422
H           0.97145527549729    2.42204954762789    0.42579880912991
N          -1.33285519866353    2.22596758070582   -1.30257152500481
H          -2.32115390396886    2.42689695323561   -1.19515608094980
H          -1.18520430941060    1.15894684891145   -1.43956346596285
H          -0.94653385493824    2.73310368164134   -2.09227198592829
