    26
        -50.46278509  Gyration_radius:  2.54838562489 Dipole_moment: 6.688
 S           0.51478976924880    0.91148721650006    0.66145928456035
O           1.70798199574087    1.88370200934256    0.85367845621742
O           0.63092466041015    0.33941537282989   -0.68276883778533
O           0.69324572871764   -0.14708452722413    1.66113388835366
O          -0.72115304000258    1.64767295926236    0.83334687696022
O          -2.30143409084056   -2.20190255458824   -0.27553641651493
H          -3.08885073474832   -1.94807578346914   -0.75907889847694
O           0.54225141780465    2.31601033545401   -2.44712209947912
H           0.51466092983138    1.53716126700357   -1.85060052615715
H           1.34388832959783    2.22730663815626   -2.96522762004221
O           0.43709422173620    3.83108315603279   -0.22630893310976
H           1.37149422074695    2.74880757768716    0.47406802193925
H           0.44405493953228    3.52288569943001   -1.15609830788063
H          -0.33955766765007    3.40733633658143    0.16999602358895
O           0.07525296613058   -2.11532436899668   -1.44371627852355
H          -0.86236484668196   -2.21600184159649   -1.15154338373042
H           0.25617421170290   -1.15163119014588   -1.37470463789169
H           0.79157254478484   -2.45905366921731   -0.22768857759643
O          -2.06208702240306   -0.44441868652812    1.70963925241546
H          -1.35330098461094   -0.68217561997330    2.31415563851784
H          -1.76453965822800    0.41371157777188    1.34448792900734
H          -2.24109616722241   -1.57388849611686    0.48409507451277
N           1.26152879773470   -2.49317237002098    0.78211464274536
H           0.81574164524056   -3.19403049702702    1.36531319101501
H           1.07314453478896   -1.50232294954504    1.18426627919437
H           2.26058329853501   -2.65749756260599    0.72263995882393
