    26
        -50.45396365  Gyration_radius:  2.61578741368 Dipole_moment: 3.038
 S           0.17250855714242   -0.62630478708933   -0.60700548357202
O           1.28916143926438   -0.05900720407206   -1.30651402626189
O          -0.84791618124745    0.48622639512601   -0.36218478439571
O          -0.48479764132754   -1.73489407597057   -1.25290480315791
O           0.61321986244704   -1.07275054165491    0.79161934651608
O          -2.99712738584009   -1.37631285424785   -2.22134768521398
H          -2.08333321304030   -1.64429256864608   -2.01697962214411
H          -2.96657738843340   -0.90836795051093   -3.05686063778428
O           0.96106478152532    2.60358498136730   -0.83611313587974
H           1.18252403694728    1.71404758548455   -1.15850697816899
H           0.01147967641592    2.57944164013458   -0.69306061836890
O          -1.63583908713706   -2.72210643844554    0.99043477442405
H          -0.93977303307584   -2.55004396515915    1.62986345752508
H          -1.20964996496658   -2.64597551404722    0.11989154877209
O           2.88568990405807   -0.10915733588255    0.92354747609893
H           2.96111795799325   -0.02841927999329   -0.03569688659382
H           2.77015266894799    0.84073779857482    1.26700796412919
H           1.59284598697537   -0.69716556799246    0.94681718872048
O          -2.99627562204992   -0.54352544389523    0.32597116169972
H          -1.78579767258891    0.09290250780635   -0.02430241531499
H          -3.31648061665162   -0.80381358450032   -0.56266436085462
H          -2.68470229857783   -1.38510677248432    0.73785878516673
N           2.45172585761965    2.38736460717709    1.59056842071041
H           1.85848705396110    2.55530921644479    2.39260476447229
H           1.93591958365054    2.65993366869953    0.74919313946659
H           3.26237274800232    2.98769549378225    1.66876341000436
