    26
        -50.46278497  Gyration_radius:  2.54840561632 Dipole_moment: 6.691
 S          -0.65335374128413    0.10426831731002   -1.04821604208279
O          -1.33341206965317   -1.09276636418369   -0.54195599891759
O           0.46449468676948   -0.20689034304171   -1.91584500175784
O          -1.71725767353650    0.88595151326011   -1.86246328755240
O          -0.25513468892155    0.95410052829810    0.07731299793375
O           1.98003759014805   -1.72960671005534    1.81555050138223
H           2.91847201331789   -1.56015492127895    1.72139466204931
O           0.75069194450472    3.21062032492037   -0.88432015031221
H           0.45198212119210    2.37380602684683   -0.46757268937147
H           0.23061309820077    3.90903054236115   -0.48341533917959
O           0.07208009975689    2.10103848222660   -3.23973594626154
H           0.56821103990190    1.27540612946456   -3.13022292585957
H          -1.17057244227260    1.44056990528854   -2.49415136991914
H           0.42181052464276    2.69812639090179   -2.54634311806954
O           1.11042758980934   -2.40183027381785   -0.60909279398187
H           1.67068342118961   -2.01921684490300    0.92361762990878
H           0.19647363772688   -2.69955037334783   -0.59370048638695
H           1.07448588886060   -1.60062118386110   -1.17035628597609
O           0.32606124730484    0.21304584692950    2.53223478448143
H           1.04346713974745   -0.44862491636405    2.38447134577444
H           0.22645690052221    0.67053447487592    1.66795787191275
H          -0.85868220041422   -0.61200154966770    2.36831174072032
N          -1.70428324583032   -1.23461124563271    1.99603122470362
H          -1.60663127617511   -1.17783293167969    0.91598110237065
H          -2.60041983226949   -0.85549802416901    2.28218621532786
H          -1.60670175329490   -2.19729283061809    2.30234132931871
