    26
        -50.45300967  Gyration_radius:  2.43478201053 Dipole_moment: 5.197
 S           1.73843739479558    1.09158194454925    0.41721759375526
O           2.25344484781076   -0.34023397191892    0.19905268911660
O           1.16082404913834    1.55200803660645   -0.83668529226775
O           0.58207683443689    0.93824771127412    1.43117862308730
O           2.75949339113446    1.90500445201095    0.96132376853571
O          -0.96314669724063   -1.39298669530105   -1.59152867430096
H          -1.53961175662581   -1.71163769541693   -2.28698609102285
O          -1.19839572170513    2.74720295062788   -1.23794661391683
H          -1.15751538731999    3.64452159630730   -0.90416890746274
H          -0.27918958940658    2.41611701941725   -1.24877054028028
O          -1.60749130879782    0.54185529431878    0.20712462888055
H          -1.67558083421696    1.37219445128597   -0.31247275468191
H          -1.46038538243879   -0.16441743220372   -0.45380424748189
H          -0.30328634422338    0.76440967492840    0.94345089240648
O           1.30070018878593   -0.46677139334171   -2.53152032854761
H          -0.13950378468623   -1.05619118820556   -2.03800199289791
H           1.29074873876846    0.37995469295369   -2.03744257589138
H           2.04688632439144   -0.95685790535461   -2.17617568543868
O           0.50317380591532   -2.08122562941142    0.62258629596389
H          -0.09250882945123   -2.03878249953359   -0.14371986881566
H           1.53904954703034   -1.07208613726632    0.40158723055166
H          -0.04446764599611   -1.82123841457707    1.41436683268158
N          -1.03759494994989   -1.21512272492501    2.62921400804364
H          -0.45024090776442   -0.51427371871022    3.06484136357509
H          -1.43924834568117   -1.79600699563756    3.35364546845704
H          -1.78666760670245   -0.72526542247526    2.15363417795023
