    26
        -50.46278488  Gyration_radius:  2.5483937 Dipole_moment: 6.693
 S           0.97509131517973   -0.75932833476983    0.13062369718148
O           1.33781331466541   -0.75942460775412   -1.27190082153446
O           2.21997268194156   -1.14831040245819    0.97060276402252
O           0.53985483397627    0.56415484793496    0.58541938080950
O          -0.05495631147122   -1.75202822942041    0.45493178684427
O          -2.73316681775226    0.69720893999305   -1.51330892714809
H          -2.66906702274726    1.30075052210188   -2.25483434070177
O           2.51797558918185    2.28332355790540    0.18557510581966
H           1.72743426362598    1.71230605846030    0.29573112087647
H           2.67842732320169    2.68500645167829    1.04103264461174
O          -1.91592579033336    1.44967929030409    0.89184862504836
H          -0.94701220316045    1.33310364920142    0.77348287847375
H          -2.29495798944793    1.31834805043904   -0.01026713287820
H          -2.12204066850277    0.14145766456988    1.48711658256810
O           3.81381651483196    0.06933980372931   -0.62733169449306
H           2.98358755781740   -0.74042530614372    0.46471226592631
H           3.17351557094855   -0.19959830015444   -1.30368477285584
H           3.57540178663873    0.99429965541224   -0.41036996108558
O          -1.10556071122084   -1.33391922311347   -2.07651008329070
H          -1.18095778494482   -2.04207625442700   -1.43063949170755
H          -2.16155052839276   -0.07329687295822   -1.74631336885344
H          -0.17397728967729   -1.04802314759097   -1.98577700512617
N          -2.08698833876070   -0.92948923238934    1.79390515843224
H          -1.96033993218918   -1.02593112651531    2.79556840480732
H          -1.21616540951201   -1.31555721857972    1.27246224369576
H          -2.92022396363364   -1.42157025527052    1.48792494044443
