    26
        -50.46294294  Gyration_radius:  2.57098612219 Dipole_moment: 5.000
 S           0.71140304462655    0.85561286129785    0.40709422337251
O          -0.11328929686852    0.50424971959164   -0.74468201853180
O           0.94587685423542    2.39216363455543    0.35997682680359
O          -0.02511224681633    0.61876742678202    1.65978438348499
O           1.99193571421109    0.17963807945491    0.39227132338571
O          -1.40459329185616   -3.01225235384047    0.09556832501241
H          -1.04683430975261   -3.68358037959436   -0.48702151552507
O           3.46587353165477    0.81013043193339   -1.70913553792219
H           2.96864318935591    0.47340813569269   -0.93133892204358
H           4.27714040324225    1.18404402653764   -1.36106855502818
O          -2.41172894396999   -0.74835074190235   -0.84915949715385
H          -2.64080370333234   -0.16082946746693    0.44768851631270
H          -1.56225051012381   -0.27957582545512   -1.01785242430392
H          -2.14106464344057   -1.66849634466833   -0.61685911215554
O           1.29909720491270    2.31922611492540   -2.18262519018769
H           2.16605481913623    1.86301286811447   -2.23399134769321
H           0.64386139871902    1.60783916402567   -2.13036025332025
H           1.12991468317413    2.57119909265792   -0.60716253330058
O           0.66616464561522   -1.96103154438920    1.42591158809983
H           1.43566494209789   -1.68912609892021    0.90968803022608
H           0.36250485799124   -1.11943229885995    1.80209820410003
H          -0.64317333023996   -2.67597725763753    0.62265345732232
N          -2.57436784011824    0.30206223916587    1.46489711458863
H          -3.09772732532301    1.16930260894460    1.51776794890818
H          -1.51840108388703    0.49755633265473    1.58710863789904
H          -2.88478874319158   -0.34956042367405    2.17874831767344
