    26
        -50.46294291  Gyration_radius:  2.5710119567 Dipole_moment: 5.002
 S           0.88504933874338    0.75886008923900    0.21263957860349
O           0.29735026938891    2.00403760553009   -0.23580037079735
O           2.43452507499031    0.88576707953159    0.17891407010518
O           0.55514126751623    0.46526598268535    1.61702558815840
O           0.52073253596354   -0.36546617670412   -0.64364804515864
O          -3.10030211238606   -1.14980792306294    0.36398670823643
H          -3.72761097837728   -0.96038648022335   -0.33514237015967
O           1.09501513904774    2.71042161203554   -2.65476956605761
H           1.50724205229406    3.57050785580696   -2.55768231485411
H           0.69996587313248    2.50020041736555   -1.77996701165175
O          -1.96335065668842    1.17866994837323    1.03538791260827
H          -1.15908807367253    0.96581210096931    1.53514523065732
H          -1.62080732569059    1.73221063503758    0.32197468206914
H          -2.73377847628695   -0.27914071081289    0.64353730473347
O           2.47448668354771    0.43001708986655   -2.34810128889789
H           1.72000169880850   -0.13817543544048   -2.13358669203850
H           2.07871986389266    1.25954500924223   -2.69099514747704
H           2.65924587349758    0.74896413681044   -0.78659326304427
O          -0.87355638912428   -2.51441812245541   -0.09636623596495
H          -0.34514605979737   -1.78513589263371   -0.49491545882364
H          -0.34790683557681   -2.35554347062126    1.23686331409994
H          -1.78202817955061   -2.13881232464527   -0.00977440526321
N           0.08310078948628   -1.99781791869050    2.20634430497930
H           0.34132866760633   -0.96762836902809    2.00524128129067
H           0.91279370707043   -2.52130679126275    2.46420195467889
H          -0.61112375788670   -2.03663997685614    2.94608024998049
