    26
        -50.46294290  Gyration_radius:  2.57091320665 Dipole_moment: 4.998
 S          -1.14720202236298    0.25782409898496   -0.15183917344655
O           0.03869329224814   -0.16505064210186   -0.89011517496282
O          -2.15513854527995    0.83824523848301   -1.18404710286527
O          -1.77273577227864   -0.83882992506785    0.55731891184764
O          -0.82397227686132    1.38228940784193    0.74197560750131
O           2.71335356902609   -0.57719119991797    1.83252168696217
H           2.97763310154192   -1.49051354439107    1.95104302247607
O          -2.62566949951318   -2.75344545850107   -1.05330735288928
H          -3.56890006336672   -2.82856963870201   -0.89901682238914
H          -2.29104830330268   -2.12397876508529   -0.37707602617747
O           2.54812217960295    0.51760137953536   -0.57703150895351
H           1.68017050262936    0.13550920312950   -0.84263312031950
H           2.01191042098642    1.77177705570281   -0.10916396842824
H           2.76976252206662    0.05730531839007    0.26732440784308
O          -1.61704065728925   -1.03822974387595   -2.85277278007035
H          -0.73298786460849   -0.96341673241389   -2.46420062892479
H          -2.02805417638862   -1.80702251232342   -2.40293675786162
H          -2.10222477304085    0.19603219113028   -1.94954088533200
O           0.11850508716704   -0.43491860835859    2.47312318216979
H          -0.21936553022010    0.39617579523626    2.10273516999701
H          -0.47374336291625   -1.08956321443076    2.08174996643442
H           1.77527880653563   -0.52504130821802    2.12905674030779
N           1.39813106543361    2.61091802259764    0.30630042106070
H           1.31716594994046    3.37855724682290   -0.35175109748425
H           1.77944877604890    2.93339081862147    1.19017375568183
H           0.42990759423482    2.16014552697553    0.47210951761384
