    26
        -50.46294304  Gyration_radius:  2.57102280935 Dipole_moment: 5.002
 S           1.09576102695354   -0.17752832315604    0.41498892377076
O           0.34940351608762   -0.06642845508980   -0.83431391178667
O           2.43633580922792   -0.89687500609857    0.09340104236282
O           1.37999747446138    1.11562721497499    1.00161791406728
O           0.39759482744418   -1.07026286500124    1.35474053368275
O          -3.22451755523635    0.75334596289576    0.30989521896391
H          -3.49717369115462    1.63772134484053    0.06182415163229
O           2.88175078702175    2.64222449126916   -0.54786864249406
H           3.66920946553054    2.84281616628888   -0.03915981704140
H           2.27628513153453    2.17149628019029    0.06642915112224
O          -2.06840569374453   -0.88222254919445   -1.42810012455554
H          -1.16243506658900   -0.49740638581627   -1.39842192838414
H          -1.80864246033614   -1.92574650114362   -0.46706715527771
H          -2.61948014447921   -0.25064087500134   -0.90726076315677
O           2.70399033095766    0.44643706023142   -2.07879451968376
H           1.73731888160508    0.38677576089418   -2.09076064709198
H           2.89916217664656    1.33828231143657   -1.71979748703688
H           2.72969068450283   -0.47268371438852   -0.76412246344564
O          -1.15526302651940    1.02263488786566    1.98552241733242
H          -0.43728435085948    1.60995183583506    1.71675819554255
H          -2.50396689075891    0.86652069229435    0.97223723404287
H          -0.71148401163301    0.16053047639938    2.02697645011977
N          -1.44787901319766   -2.57447567035275    0.37089498887521
H          -0.63505880199373   -2.00632199411078    0.80093402407160
H          -1.10816320460287   -3.46887157715998    0.03402784086725
H          -2.17674618083946   -2.70490056895213    1.06541937347120
