    26
        -50.46294288  Gyration_radius:  2.5711004604 Dipole_moment: 4.997
 S          -1.17453907693532    0.14741311941637   -0.07227578411900
O          -0.11480391883264   -0.14989222082946    0.88618482861051
O          -1.55051072397266   -1.01283084035822   -0.85297175291678
O          -2.40840873791438    0.63887078035254    0.73666968734351
O          -0.79509903171223    1.28761315326266   -0.92292422226777
O           3.05342008218295   -0.33101224905259   -1.27667911194811
H           3.41954493768073   -1.21554060987158   -1.31642471031884
O          -2.50778723323845   -2.98452968035755    0.62417409598797
H          -3.39351402922687   -3.15366384936844    0.29861347535394
H          -2.11249326231480   -2.33232015159253    0.00453284173224
O           2.33418107786573    0.76978605333582    1.02619208672339
H           1.78061947312640    1.96058555937675    0.43030363899065
H           1.47144610339772    0.30784635759200    1.13634402512268
H           2.75317928352620    0.32384806751690    0.25192155907389
O           0.62320511302533   -0.44982842412252   -2.39193923345637
H           2.18711981425109   -0.37410535505765   -1.74378594272844
H           0.03147733599675   -1.15440702311121   -2.09870464855284
H           0.14532771049098    0.34878023105162   -2.11650356240710
O          -2.02260324730237   -1.15927558855851    2.52936895253572
H          -2.26745669872376   -1.96927548264991    2.03301684934132
H          -1.09195371180923   -1.00311089978575    2.31130474055528
H          -2.44157210850087    0.01269975729476    1.51637500409511
N           1.18015446015272    2.73133967450139   -0.11623117635869
H           1.68893049771857    3.07981383413470   -0.92264760678698
H           0.90522963196578    3.49461601259459    0.49259544260435
H           0.30690625897108    2.18657976405832   -0.44650949623184
