    26
        -50.45300980  Gyration_radius:  2.43482849622 Dipole_moment: 5.195
 S          -1.67343752321566    0.66295603877715    1.07162847460185
O          -1.37427463601940    1.60330942828207    0.00200017434583
O          -2.60530267706343    1.10528889214335    2.03926030113767
O          -2.15350307059014   -0.64631054517790    0.42476691797654
O          -0.33532407508994    0.29280815947648    1.75076928793251
O           0.69930262609923   -0.61461293646292   -2.12947485171987
H           1.14268608447300   -0.59736523626030   -2.97840446119793
O           0.80251639440955    3.12716044653368   -0.30693757182848
H           0.78511050541229    3.83518205869891    0.33857402130329
H          -0.08443348539429    2.71771504182838   -0.28927415905995
O          -1.74523420400847    0.31794024654055   -2.27354508685570
H          -0.21046885363811   -0.23824760603815   -2.27727622250639
H          -2.38373622155553   -0.34927556144908   -2.00822564157581
H          -1.67946374297924    0.92868304659421   -1.50946598981911
O           1.59035787615200    0.61512192609652    0.12651065454445
H           0.44520627879048    0.40850005034998    1.09562102400168
H           1.35089902083299    0.17836335485209   -0.71554059238314
H           1.51630889790020    1.57792002628879   -0.05121677321141
O          -0.27410406957623   -2.20970789616915   -0.12077460408503
H          -1.37974737056273   -1.31476066990271    0.22160401729307
H           0.15829295446709   -1.82896060604130   -0.90303984312151
H           0.40461744061343   -2.18726846900288    0.60949814664618
N           1.58669574617918   -1.94290646075481    1.78095815766755
H           1.06354348726330   -1.51703538980521    2.53649980729668
H           2.20338736474050   -1.23183882612364    1.40510536808075
H           2.15010527235867   -2.69265852327370    2.16037945453769
