    26
        -50.46294308  Gyration_radius:  2.57131720256 Dipole_moment: 5.012
 S           0.13479358434550    0.89144644099366    0.76924532633975
O           0.75898738239708    0.20097937218580    1.87869454261356
O           1.12147208409909    1.35286818691745   -0.22128695920923
O          -0.89679385338285    0.08436897069778    0.12529009585576
O          -0.54793094957116    2.18628006404538    1.29424863945450
O           1.10366996789290   -2.46520246960604   -1.93985178048928
H           1.01170592327327   -3.36226499114316   -1.61587465995622
O          -0.93865776611092   -0.39207385525203    3.81578140229275
H          -0.60515827141916    0.04281812957528    4.60241318652808
H          -0.25046921174688   -0.26630341923700    3.12577943193179
O           2.28131768965277   -1.05425972084273    0.00578188511944
H           2.14109879143904   -0.11665582638487   -0.20167477227190
H           1.91109172159556   -1.12477799815898    0.89500165189920
H           1.59157822182724   -1.97195173043178   -1.24042637645286
O          -0.99736242014776   -0.88832044380543   -2.30460925142268
H          -0.22094379062680    0.27338137254501   -2.66055163669646
H          -0.30900545894824   -1.59392158833795   -2.26028759807326
H          -1.13823750886408   -0.62523781602895   -1.36598206976672
O          -2.58708143819553    0.85182536131613    2.10352923266018
H          -2.38672685231743    0.30849236517034    1.32718071053828
H          -2.19960094258226    0.36471568984906    2.86182193708471
H          -1.40534488331622    1.85450009173449    1.68950685202189
N           0.45046122510714    1.16838587582278   -2.70180523755237
H           1.27785131347823    0.97349343978733   -3.25683227081866
H           0.73408390214663    1.32131711640568   -1.67012420148303
H          -0.03479845997925    1.98609738204176   -3.05496809003615
