    26
        -50.46294297  Gyration_radius:  2.57087234592 Dipole_moment: 4.998
 S           0.95779965592822    0.51483219550909    0.47210166976270
O           0.37529522177329    1.71768394214772    1.02984907826445
O           0.88237620021233   -0.62104265920176    1.40579607384505
O           0.36704656093395    0.15897280354664   -0.81413326828558
O           2.47755416285878    0.74631971188286    0.23785731890919
O          -3.04229310023453   -1.33372962051613    0.13013882817015
H          -3.77472682343619   -0.78777048875684   -0.15891053922131
O           0.74552452368357    3.84413960328250   -0.49537145176214
H           1.22427190480585    4.47637571683623    0.04335442661972
H           0.50999414370782    3.10231193058463    0.10448335861516
O          -1.64828280102238    0.11675770796564    1.89535316110061
H          -1.41494516402374    1.01957660254279    1.64421016636664
H          -2.57296866743628   -0.81393470029376    0.82310287792793
H          -0.77798374665506   -0.30397219584272    1.98283790934822
O          -1.03860340220254   -1.94346691865029   -1.49639363816889
H          -0.26250460480407   -2.62498208625136   -0.49007306609645
H          -1.88747729418311   -1.77052998061652   -1.02375345780410
H          -0.54750293546657   -1.09199464636579   -1.43548445839106
O           2.00989466342126    1.98710040323289   -1.96122540799378
H           1.27511415969068    1.35862821425908   -2.01797111705669
H           1.60966362586490    2.81602923195652   -1.62198087753018
H           2.50616917622153    1.26403474630206   -0.61807315435346
N           0.36507456045062   -2.92957198034348    0.38561901071017
H          -0.17946089863063   -3.47235288509556    1.04853782428738
H           0.64934848524159   -1.98852663559139    0.83474588236899
H           1.19162241327405   -3.44088802251670    0.09538284034678
