    26
        -50.46294309  Gyration_radius:  2.57079911234 Dipole_moment: 5.001
 S          -0.58412242774864    0.06675388638478    1.02895782545642
O          -0.37235150638301    0.13487296315292    2.56798690161836
O          -1.68492661495391    0.93374580382365    0.66306131388787
O           0.66933319507240    0.46710569748541    0.39745155299493
O          -0.87555896621838   -1.34806450747089    0.74433983843393
O           0.27840431521204   -0.72923485050717   -3.23155017653516
H           0.21872929643583   -0.00434821806490   -3.85534278394101
O          -1.31516145428443    3.43888394262338    1.42045666424491
H          -1.51168076537166    2.54987213687599    1.05095571630607
H          -2.05011407301225    3.65237213246604    1.99782876165983
O           0.94360510940357    2.32929030819398    2.34977051982902
H           0.13943816055627    0.98511854106249    2.69646010651636
H           1.23276569391614    1.93062659089542    1.51573045074624
H           0.22523949719918    2.94872648364959    2.09966055275688
O          -1.84907677825344   -0.53809754754551   -1.61920238650385
H          -1.66149690464584   -1.08481424361963   -0.83952291473714
H          -2.03370429982693    0.32392637780618   -1.22472625512150
H          -0.53934981136836   -0.68429172790646   -2.68381835668820
O           2.14965580352280   -0.79847772687818   -1.35407472606131
H           1.73308188547250   -0.17037040664022   -0.72013733369301
H           1.64681689684568   -1.99150532046819   -0.71945815228967
H           1.58696165420073   -0.73920870492430   -2.16266414144101
N           1.06953962334068   -2.77308634373752   -0.16306742107412
H           1.62918145560052   -3.20758402444964    0.56278553295951
H           0.70192150599225   -3.47224489334221   -0.80071132532091
H           0.25286948936938   -2.21996632886976    0.27883023598851
