    26
        -50.46294323  Gyration_radius:  2.57066579532 Dipole_moment: 4.997
 S          -0.71004513790908   -0.75088331510174   -0.58116313427075
O          -1.36563399801225   -1.02332453363363   -1.96448557302871
O           0.41358562254718    0.15431407918810   -0.80097742352610
O          -1.75632194252184   -0.08929524474495    0.21575625264342
O          -0.29484731216746   -2.00951706065291    0.00279472491172
O           1.21571929380953    1.45073666804426    2.72911483867691
H           2.06359516795402    1.14139348927707    3.05079855218312
O           1.37684996165642   -3.35962538724223   -1.53640561768295
H           0.95538590980217   -4.20319070655237   -1.70917174004195
H           0.80966240015447   -2.90484806680515   -0.87542537033948
O          -0.32035445443582   -0.71407346411243    2.39237780824359
H          -1.06206825181757   -0.44889156658912    1.82546428829557
H           0.05990411943387   -1.45230252044981    1.89902164001429
H           0.64046163576128    0.65316345999426    2.66780698218734
O           0.93760338104723   -1.21283218767612   -3.08401231898130
H          -0.58182189677878   -1.15099843773246   -2.57332298922214
H           1.17633266808672   -0.54168485566770   -2.42775297804492
H           1.25663377752204   -2.06079673376878   -2.70771524767981
O           0.94073684186041    2.47286567628242    0.29772791311534
H           0.92670281958734    1.62793723351964   -0.20821370281536
H          -0.49179375975919    2.61079806283001    0.37878385632935
H           1.17776032941475    2.20385903615534    1.21717553601513
N          -1.60155244070039    2.47292909457987    0.43712469643923
H          -1.73240118602693    1.40800416426968    0.30715954851080
H          -2.08201735306871    2.97595648906742   -0.30103127650226
H          -1.95207619522293    2.75030663746607    1.34857073444622
