    26
        -50.45396361  Gyration_radius:  2.6155757391 Dipole_moment: 3.041
 S          -0.84291966509943   -0.14912350503601   -0.23848591022175
O          -0.68465873483644   -1.09985669170045   -1.30107782269211
O          -2.17292032661657   -0.01633682052215    0.30172359270086
O           0.11819767354736   -0.53283917190123    0.88767570510362
O          -0.37069305390030    1.23172814088768   -0.70736130650302
O          -2.64693328467370   -0.89479123859640    2.82795589221711
H          -2.73772199251926   -1.84855758479950    2.83518692726529
H          -2.67144143589728   -0.61821982756356    1.89437175789551
O           1.72794031022523   -2.21707991147780   -0.71082328258568
H           1.70938938479827   -2.04074458682682    0.23327401976525
H           0.83670487489407   -1.98457382352569   -1.02057699333117
O          -1.79470167533028    2.44220472060687    1.37205460673635
H          -2.19391041782584    1.66409675931377    0.94725550894604
H          -1.22984738435235    2.83587768994273    0.70204206008311
O           0.68413034522225    0.68219785385479   -2.87420879893593
H           0.10773409639226    1.09841216974732   -1.64454220111332
H           1.64560127745281    0.42786428065559   -2.66311485077156
H           0.20776467491199   -0.15426431227971   -2.95032538440880
O          -0.51190586443977    0.72155564216232    2.93200644099730
H          -0.08932053877494    0.01349943026139    1.78592203643619
H          -0.93689956683386    1.52384253362123    2.54387921692662
H          -1.25941337012734    0.15581480603821    3.21694272551511
N           3.06487812116357   -0.17341507527550   -2.19205673970677
H           3.60988292945603    0.41705149801432   -1.57742705338803
H           3.66870562243811   -0.48979098467326   -2.93971964050170
H           2.76235801072333   -0.99455199092229   -1.66057048643936
