    26
        -50.46294290  Gyration_radius:  2.57087632797 Dipole_moment: 5.000
 S           0.65312247551860    0.60880174375364    0.77934778163066
O          -0.29125156199927    0.02735173564649    1.74771412221494
O           2.02900285067246    0.60569429255730    1.50401137447565
O           0.77574628534379   -0.25054201839597   -0.39399195619689
O           0.30475039023119    1.97002464222612    0.42907088156880
O          -2.86132855362903   -0.92754925464979   -1.41760216511637
H          -3.08693778468476   -0.52613898262813   -2.25789506297437
O           2.12653212886685    3.14510693264249   -1.08276439621604
H           2.41573151497124    3.91867163443507   -0.59587177774613
H           1.37207752886562    2.77309060075475   -0.57481211240139
O          -2.25934589908278    1.07223664514469    0.25655845084891
H          -1.64106471937216    1.74510286327822   -0.05575838798639
H          -2.70158661025688   -0.18155724712996   -0.79428211065553
H          -1.77813155421659    0.68058676354912    1.00291725298004
O           3.27515967227323    0.74576312785004   -0.73708270275582
H           2.68808765237380    0.67746593260397    0.75449833699917
H           2.52938760776977    0.21037932548710   -1.04580165216724
H           3.05963268809966    1.66300893244637   -1.01027219711286
O          -0.63733716579105   -2.33768380738648   -1.10597999830602
H          -0.00831801390100   -1.58481642778440   -1.01914216634314
H          -0.81140785695218   -2.53861490249811    0.31090852769090
H          -1.49077099200340   -1.91444834850781   -1.36379222444974
N          -0.90372994752586   -2.45411180151532    1.42366836936329
H          -0.61568688110584   -1.43229527819098    1.62602627112873
H          -0.27845536988704   -3.09368163542402    1.90196959482147
H          -1.86387788461807   -2.60184545820228    1.71835795664674
