    26
        -50.46294291  Gyration_radius:  2.57119009218 Dipole_moment: 4.999
 S           1.00340873915937   -0.46039268127342    0.43268725094611
O           1.03750547727620   -1.73810815756218   -0.24794924188418
O           1.62346606671921    0.60921076316725   -0.36672032689206
O          -0.34831218562009   -0.08161846544719    0.83197968571392
O           1.86230416251121   -0.54901880092581    1.72603526975687
O          -1.98470726745771    1.07089228306216   -2.44598880097757
H          -2.68728787455648    0.48579315154340   -2.73258607809158
O           0.19475241068032   -3.73637511184949    1.26286275249353
H           0.92418164685107   -4.35647148095057    1.31317820359812
H           0.46673202723918   -3.05215413482745    0.61216000793595
O          -1.82928576824633    1.93527719410797    0.05599659704646
H          -2.05478150033763    1.66648494054189   -0.86645227064534
H          -1.44105030613913    1.12455639191489    0.45826787803723
H          -0.57223685112238    2.61861683756799   -0.12315280869695
O           0.27480095138411   -0.36359142682221   -2.47009101810139
H           0.26109772069256   -1.22755985928587   -2.03890021606391
H          -1.15127975230825    0.55043940588578   -2.51737184027895
H           0.92424867733887    0.12233837847601   -1.93707940586351
O          -0.05485681179056   -1.69880100753391    2.99003694910445
H          -0.60284401769151   -1.13158392252482    2.42786383276995
H          -0.06414907414863   -2.57636119126580    2.55163861880323
H           1.25955149836289   -1.01369784737916    2.37570865684470
N           0.49303518205138    2.92267193309571   -0.28509785210765
H           0.83249901812972    3.51576013059907    0.46448016630861
H           0.60489568008165    3.38012368434912   -1.18444742573458
H           1.02831217102441    1.98356902328590   -0.28705859426850
