    26
        -50.46294294  Gyration_radius:  2.57090677577 Dipole_moment: 4.999
 S           0.43810675176655    0.83336253312609    0.72036844868813
O          -0.82503277559483    0.30101352810287    0.21911222525618
O           0.12407326825675    1.63033892599860    2.01821950887406
O           1.32540677620692   -0.26104990751627    1.14762287771103
O           1.08025035759964    1.71376063258168   -0.23337049197504
O           0.24986764586941   -2.39912066709283   -2.29042308005369
H           0.02630651019971   -2.17109702406383   -3.19380679009848
O          -0.37203114530053    3.84619803495915   -0.80750135101967
H           0.20852269458064    3.06065945049359   -0.70053836009624
H           0.16389041019006    4.60424921982663   -0.56822789764115
O          -1.98804244598553    2.63677260294560    0.95960617626023
H          -1.59077995006068    3.24463782501789    0.30002293433182
H          -2.02778543271232    1.77659612158114    0.51617882677546
H          -0.70891290256789    2.13458306597378    1.78735923593122
O           1.98850254097191   -0.55288363130591   -1.43434759667256
H           0.93462525038116   -1.74974833823217   -2.00767901351559
H           1.76136732072425    0.37502390877230   -1.57592723174208
H           2.01128822994742   -0.61377333781150   -0.46605664516206
O          -1.51407586578950   -2.16733145838465   -0.32404057681211
H          -1.44543211216010   -1.19387798828226   -0.19163452297051
H          -0.98568295002313   -2.34085017977676   -1.13929830220965
H          -0.58553076013141   -2.51636081039704    0.72267277981143
N           0.23740484144660   -2.57232150970266    1.47959882570940
H           0.70995542518440   -1.60226619047602    1.41426500389552
H           0.90669896355445   -3.29435427319756    1.23200132426560
H          -0.12296064656866   -2.72216055296241    2.41582370244963
