    26
        -50.46294297  Gyration_radius:  2.57088687554 Dipole_moment: 5.002
 S           0.83582429844375    0.73013850714272    0.41692250014836
O           0.80633352433577    1.78032070686170   -0.57966565948089
O          -0.49724288786785    0.22155160619912    0.72462176320452
O           1.73205009780244   -0.37290983774887    0.03261160940252
O           1.43344024055590    1.29634527746062    1.73619452775994
O          -1.35003010043377   -1.99109428255391   -2.29500484394667
H          -2.06662356772523   -1.63451938167646   -2.82176342938226
O          -0.56353481090343    3.90229670627291    0.20005036291925
H           0.05019994533534    4.63831171101090    0.17298421915366
H          -0.08746516486100    3.13944770390234   -0.19607237515255
O          -0.82011028944699    2.35040512118715    2.37342883822603
H           0.66607840168329    1.78855418670439    2.14856497113715
H          -0.87747639573608    3.07366265815187    1.71318919876470
H          -1.17357934765701    1.56987883382068    1.92173954225349
O           0.65386259251385   -0.22140876712410   -2.41740039452911
H           0.44161854046187    0.70500501167293   -2.24625250897362
H           1.26119630729186   -0.43139411102288   -1.69003914792314
H          -0.59853363754874   -1.36216541011758   -2.39705360998645
O          -1.51847321065731   -2.16058382618750    0.34577824855668
H          -0.16594080332872   -2.62494697428237    0.52867371253859
H          -1.32542697499655   -1.21823645240142    0.55706791158062
H          -1.61353772612824   -2.17633055676437   -0.63643112483053
N           0.94351118703078   -2.75970158930413    0.59792998920426
H           1.33249664877053   -1.76945038973685    0.40807313746426
H           1.27474070769101   -3.39882553266074   -0.11784088765815
H           1.22662243544976   -3.07435091875245    1.51969345955358
