    26
        -50.46294304  Gyration_radius:  2.5711007292 Dipole_moment: 5.001
 S           0.42538707255300   -0.39401310468126   -1.03322537663598
O           0.15527608701548   -1.42213334745520   -2.16818437681869
O           1.42755889255967   -1.03521977385591   -0.16588115493433
O           0.91743857347273    0.83714839382294   -1.61555374867550
O          -0.82809944092302   -0.20232133368966   -0.31054550376154
O           0.25774600952267    1.49143843035771    2.96145876564360
H          -0.05251938059791    2.39546019249967    3.02900654796001
O          -0.73892593075594    1.86615733964735   -3.40002056997146
H          -0.09193579073883    1.59115658051237   -2.71350931709027
H          -0.24653937168185    1.91492637682557   -4.22118095535505
O          -1.35920152444297   -0.48254844262838    2.23953079632926
H          -1.35800224943857   -0.31445050282619    1.26920243040318
H          -0.32570455969586   -1.48786441743983    2.20873958798394
H          -0.88478685902283    0.29332085991888    2.62270244264419
O           1.90821019297087    1.39598748205861    0.85690863231444
H           2.00959276621317    0.46031773753660    0.61973392327994
H           1.59810435606642    1.78485024401028    0.02913372072311
H           0.90987790080077    1.48230395576733    2.22299432319066
O          -2.10826265352242   -0.33136867507214   -2.69824039779834
H          -1.81429123430972    0.51473036020151   -3.09832966675364
H          -0.73092717626340   -1.13766425568910   -2.53571450651050
H          -2.11519199461743   -0.16839860999024   -1.74349091873796
N           0.55677574183860   -2.14160053899629    1.99153492797215
H           0.94399652402593   -1.74625225845414    1.06308187969441
H           0.28500278454536   -3.11137365826511    1.87101661139732
H           1.25942126459239   -2.05258905408083    2.71883187361227
