    26
        -50.46294282  Gyration_radius:  2.5710772487 Dipole_moment: 4.999
 S           0.50698679615820    0.43034209569147    0.98122003858493
O           0.82184555495323    0.00869221414401   -0.38009248596810
O           1.83458754441595    0.41645846944289    1.79096261859601
O          -0.06247509415566    1.76093607994322    1.02627612093140
O          -0.35521325612326   -0.56340835950123    1.64219129727659
O          -2.59827911213737   -0.87542322968727   -1.88160741162696
H          -2.85890925635883   -0.27250101634523   -2.57917948892138
O           1.57843179420220    3.61822214755928    0.10713964984638
H           0.88308245364602    2.99354563906111    0.41004777267797
H           1.70889109913711    4.23658298689905    0.82807509572678
O           3.11755125043893    1.44023680245526   -0.18424729894090
H           2.75443700720322    2.35154158416201   -0.18705712444953
H           2.49786869582145    0.81990269813968    1.15971864149400
H           2.48917599722863    0.91813195084476   -0.70449603845770
O          -2.42003627950643    0.57171019246877    0.36307930370268
H          -1.92015119242403    1.39693364888880    0.32333602013237
H          -2.59564694793123   -0.34536356023157   -1.05122213202370
H          -1.90421536891870    0.04835095053337    0.99715756211386
O          -0.17428597521248   -1.94815389718448   -1.80880632255977
H           0.30885636349348   -1.17120035621859   -1.44447892107050
H          -0.36387423847958   -2.60384459569426   -0.53831816114768
H          -1.07854892502480   -1.60407692044101   -2.00343702274989
N          -0.51152661048689   -2.88437020262672    0.53528312216767
H          -0.41417942764521   -1.94428556476070    1.05981357261383
H           0.19723970973412   -3.53620209461161    0.85398998121726
H          -1.44161258202052   -3.26275767298547    0.68465161083751
