    26
        -50.46294301  Gyration_radius:  2.57141957996 Dipole_moment: 5.005
 S           0.73636179745021    0.56694846778636    0.73554785616597
O           0.73126432075443   -0.24115150692124   -0.47976433890806
O           2.17687007338461    0.51977150846295    1.31926902935052
O           0.37300944359264    1.94531795034716    0.48015762936298
O          -0.11549872964493   -0.04793279338183    1.76696173675283
O          -3.00324569023697   -0.83926581997477   -1.16161831047989
H          -3.31095136060702   -0.40038803791144   -1.95587615158329
O           2.05198638870670    3.17213118049590   -1.15149304835508
H           2.39836362397657    3.92000107112233   -0.66174812899346
H           1.34641047124022    2.78422648312741   -0.58828743685189
O          -2.20728368343500    1.08032585931503    0.52534567419387
H          -2.77088772969160   -0.12213953160257   -0.52739482437346
H          -1.66040189158848    0.65153441390973    1.20283950377813
H          -1.61305438790548    1.75977717807051    0.18211317227135
O           3.19684644958745    0.74930429809399   -1.02629166978618
H           2.41746153596560    0.23453927043419   -1.28255745484643
H           2.96747263811741    1.67965295771611   -1.23665185484762
H           2.75947354342804    0.61938430238629    0.51181505937471
O          -0.77684311345847   -2.27971640474065   -1.13802722692735
H          -0.81113247576337   -2.54216177621667    0.27973046677370
H          -1.64598299061510   -1.83765020004141   -1.28993515911690
H          -0.13181957690154   -1.53767744940237   -1.08216985179349
N          -0.79061989291204   -2.50650373625173    1.39841585495303
H          -0.12952136455096   -3.17263140454683    1.78323096976050
H          -1.71848008252239   -2.65844525095128    1.78127875696255
H          -0.46979729629297   -1.49725102938739    1.61510973717237
