    26
        -50.46294300  Gyration_radius:  2.57120211659 Dipole_moment: 5.005
 S          -0.03145284460082    0.33165793928367    1.13819882422832
O          -0.87831306055497    0.22886497923757   -0.04597181723394
O           0.73794778035215   -0.90865790641615    1.33089301043534
O           0.82153851860146    1.50152076034021    1.10344993343081
O          -0.96997430483116    0.42244505767927    2.37470879618773
O           1.52631998036708   -0.99134297731651   -2.78247301144750
H           1.67697174233181   -0.33323573618899   -3.46239651462454
O          -0.53302175846897    3.77030084330354    1.04378682450152
H          -0.25987405154487    4.26250725005438    1.81983238214130
H           0.05114836252792    2.98112196338229    1.00529804310814
O          -2.55577537583571    2.00996812697695    1.12562989097953
H          -2.28584473112623    1.48088369679752    0.36059375550227
H          -1.68868295038978    1.05152528252581    2.07643716099976
H          -2.00671450722644    2.82165633793085    1.07995402617982
O           2.46298498490210    0.03230476066082   -0.49372598964464
H           2.08182208147712   -0.49268886324177    0.22808132273149
H           1.92918796310360   -0.62917870288165   -1.95961137541869
H           2.18935682516041    0.92884215863177   -0.26138012219761
O          -0.91543037089425   -1.58517170401159   -1.93554230938878
H          -0.47317360370907   -2.48426037806219   -0.89843408976334
H          -1.04808060062342   -0.81131148205265   -1.34106895202009
H          -0.07442595132619   -1.38638351583779   -2.41208319029229
N          -0.04526077894684   -2.97769114887997    0.01083302086514
H           0.76210538368843   -3.54318938911280   -0.23191622223884
H          -0.73969408439440   -3.53337570896741    0.49848558445997
H           0.26633534195849   -2.14711161383376    0.62842101851545
