    26
        -50.45300982  Gyration_radius:  2.43484732394 Dipole_moment: 5.194
 S           0.99599345730644    1.04097971934422    1.52085378171447
O           2.10727399490577    0.20351786860478    0.86759614929686
O          -0.13873056765445    0.02965782866118    1.80083726043046
O           1.45374915804759    1.60786596647925    2.73300185034604
O           0.50549082449923    1.98222509061847    0.52521544553154
O           0.02651065189039   -0.38401996675278   -2.29202776274352
H          -0.22367662175588   -0.36939949996721   -3.21650785284100
O          -2.02832027092926    2.52650972938899   -0.13781833088761
H          -2.43736350027149    3.02935985236775    0.56791709642194
H          -1.07001567923035    2.51580286262951    0.05232208203642
O          -1.69348326391799   -0.11970026784938   -0.20202883999234
H          -1.14349813191736   -0.23622999111665   -1.00266449224213
H          -0.76282210756356   -0.04495794828915    0.99048865977738
H          -2.02041789446967    0.80515626551861   -0.24493140394355
O           1.79438869153632    1.46317570749808   -1.71911906549872
H           0.68808365545379    0.34922732373102   -2.16591386741432
H           1.33451529811835    1.82067458025812   -0.93051308256625
H           2.60408215812684    1.07078498701322   -1.38193134626388
O           1.23403664732264   -1.83311676368619   -0.29992114893717
H           1.75493039847852   -0.66168941372547    0.40480861095886
H           0.49855448593550   -2.23942484303988    0.23713667998033
H           0.82243338594109   -1.50446781625704   -1.11629834879121
N          -0.85499189331206   -2.74335164638609    1.09940346546827
H          -0.71308058346117   -2.31152548406502    2.00456762270307
H          -1.08853155841386   -3.71774715126807    1.23924083547043
H          -1.64511071467245   -2.27930698970792    0.66628600198321
