    26
        -50.46294300  Gyration_radius:  2.57099487012 Dipole_moment: 5.000
 S           0.12724282386001    1.14472184001139   -0.28046781203659
O           0.02527503264791   -0.17801821589593   -0.88883880421670
O          -0.20547307487514    2.19014085816560   -1.38244989579315
O          -0.91512720667823    1.32276657303506    0.74394025948046
O           1.45259348402462    1.40905741066493    0.23979718365290
O          -0.14233055760116   -2.55680971312850    2.12218480667546
H           0.63472235431448   -3.11261041482289    2.19502713729308
O           3.31837538316223    1.38148496817917   -1.63226009810563
H           3.72658480686152    2.24871550605879   -1.61201328079875
H           2.70545491377211    1.35389658676643   -0.86472461090644
O          -1.41677912037563   -2.24815979134661   -0.18276296280951
H          -0.95384436896666   -2.53524513016542    0.64013266876098
H          -2.34520843529893   -1.26391140928407    0.31631196840566
H          -0.80160074971767   -1.59891128304263   -0.59486555750824
O           1.14692767976954    0.87302869627295   -3.12336427303176
H           0.82837837258246    0.11224984671935   -2.61553903004588
H           0.27686337393195    1.84322138484640   -2.18765589570730
H           2.06049171639874    1.02885459805978   -2.80172474362805
O           0.68432927153569   -0.02874778722264    2.41860643830949
H           0.16456757634177   -1.63640905138270    2.29351144688821
H           1.44251689068254    0.25687983953611    1.89305263053808
H          -0.02530884566586    0.54227685295499    2.08355700096118
N          -2.86708026332651   -0.35813148344607    0.71689616247424
H          -3.63957460921727   -0.07625693904857    0.12304999573730
H          -2.09824317848649    0.40169990267669    0.71212356740896
H          -3.18375326963341   -0.51578367498289    1.66847568794375
