    26
        -50.45396352  Gyration_radius:  2.61599358997 Dipole_moment: 3.046
 S          -0.30873797561894    0.66361088918254   -0.50319307546881
O          -0.15010111859115    1.19379937041769   -1.83432211476555
O          -0.19717683325211   -0.86083491287799   -0.55538450252048
O           0.88501730023451    1.11779259690151    0.34438183913570
O          -1.53186706779242    0.99714095167551    0.16800239717503
O          -0.19885644027145   -0.52470709994793   -3.93740013153412
H          -0.24751098969111    0.22473651098095   -3.31725119379117
H          -1.10154443779391   -0.77129398754799   -4.14295375312305
O          -2.12650992377059   -1.32834838672859    1.45451652321731
H          -2.10677766286262   -0.46250667252470    1.01380284657105
H          -1.65261942450942   -1.91391061054889    0.85845034919721
O           2.54911169561646    0.98479164057170   -1.89826366051673
H           2.75932980297420    1.20576686584207   -0.98722081619804
H           1.63664650250165    1.29200907347382   -2.03334254636997
O          -0.22552600300022    1.76186354854297    2.45659512733473
H           0.50500931428072    1.41455005244978    1.28911461235512
H          -1.08702165957692    1.86081535716071    2.03203412811880
H          -0.29286918483020    0.91225923484471    3.01109135677827
O           1.58193203412703   -1.47072395505100   -2.17194613401739
H           1.06400825561282   -1.36221238582427   -2.99644540987446
H           2.16233459986731   -0.67296137164395   -2.13198741985825
H           0.58727639959835   -1.17516197303175   -1.21417854923062
N          -0.55251538926668   -0.52248799038551    3.69707896868925
H          -1.18061526901682   -0.95463762208558    3.01367179022448
H          -1.03148453254201   -0.49398188636327    4.58785149483485
H           0.26106797757087   -1.11536723748154    3.79729785364919
