    26
        -50.46294313  Gyration_radius:  2.57104624288 Dipole_moment: 5.004
 S          -1.16561202429898   -0.13358225302797   -0.16882465317728
O           0.07093471462938    0.14085579701047   -0.89410351076086
O          -0.98242936369576   -1.26889053219146    0.75046398796782
O          -1.67616248028338    1.03965540608128    0.50949717575875
O          -2.21625857469624   -0.61877102292884   -1.20750801914112
O           2.72881854811568    0.31087646685713    1.87630274842493
H           3.09212553657399    1.19034361526339    1.98878638370439
O          -2.28932136248262    3.00238244289621   -1.15154013680700
H          -3.22074514931016    3.18383408686463   -1.01502486560291
H          -2.03619639418755    2.35408105642694   -0.45790687365354
O           0.12343056470026    0.46842690001656    2.46812288681463
H           1.78562390809052    0.36882494712729    2.15500784291094
H          -0.38734374124177    1.17349826903937    2.05003112112257
H          -0.29603622405672   -0.32975221396691    2.10923638917000
O          -1.44689221415303    1.15142577463202   -2.90123965290187
H          -0.58278414758834    0.98755322639905   -2.49544788530944
H          -2.07964958077222   -0.00209957043421   -1.98372781901227
H          -1.77775824809191    1.96964413936864   -2.47305825779708
O           2.48588590360907   -0.80173421931857   -0.51869761910801
H           1.66945703469229   -0.33266283473355   -0.80746071954853
H           2.74150378770589   -0.35296806010651    0.32218113173844
H           1.80761749380215   -1.98133583870898   -0.04168183373038
N           1.09817314773194   -2.74094753253452    0.37462557465760
H           1.42666411564650   -3.08923238267870    1.26978695332981
H           0.94414889628317   -3.50562254814442   -0.27376190626350
H           0.18280585340995   -2.18380314894494    0.51594157752402
