    26
        -50.46294325  Gyration_radius:  2.5709771617 Dipole_moment: 5.004
 S           0.46777754028536    0.80073402623676    0.73623430704137
O           1.11837306705587    1.68476395305903   -0.20865690790260
O          -0.81864079596439    0.31639791337128    0.24561887112272
O           1.33023846685865   -0.32833840256226    1.12204428405837
O           0.19998679822983    1.57602960478360    2.05724924010009
O           0.16205438521694   -2.34143641517582   -2.35583677916280
H          -0.06166653484080   -2.08717888983195   -3.25218644833567
O          -0.28067988699829    3.87140769158313   -0.70664229650202
H           0.28086227731124    4.60752514063249   -0.45771429994838
H           0.27846491375165    3.06715146062515   -0.62877670374490
O          -1.90033854773406    2.66626585000907    1.06018881674893
H          -1.49750040730140    3.27807038652176    0.40770272869489
H          -1.97240774943478    1.81820337269972    0.59783205105836
H          -0.62191167660898    2.10900276353689    1.85283191100451
O           1.96201045586213   -0.56898245643384   -1.47335399993366
H           1.99608340216335   -0.66034571527852   -0.50785380172602
H           0.86830291488593   -1.71908989945975   -2.06478676177097
H           1.75310880262408    0.36777729463240   -1.58259485306367
O          -1.57659403836076   -2.11577287911991   -0.36619193193928
H          -1.48171354490819   -1.14866863721987   -0.20675830956398
H          -1.06012596440327   -2.27990414554902   -1.19094606004949
H          -0.64854063800795   -2.51711670761262    0.66233885927117
N           0.17858845071631   -2.61446415309444    1.41033763107969
H           0.82436881149753   -3.35002043005301    1.14107102480247
H          -0.17882436172587   -2.77476774561792    2.34598272068282
H           0.67872386979733   -1.65724297068168    1.36286669796211
