    26
        -50.46294297  Gyration_radius:  2.57083190088 Dipole_moment: 5.000
 S          -1.07196545998328    0.27355248271744    0.42621096818779
O          -1.89994787290698   -0.68574208594255   -0.27469242970521
O          -0.51654477208176   -0.28047244930667    1.67210765490213
O          -0.00553652938703    0.80432754787760   -0.41712925728620
O          -1.95201059050279    1.47469170068253    0.87423685498072
O           2.55817853593524   -2.05055400254638   -0.55472849773588
H           2.63201713404837   -2.43584542886955   -1.42889406680029
O          -3.14318784201108    0.35777543211415   -2.36053136821066
H          -2.67966441588627   -0.12837260388745   -1.64330046926506
H          -4.08014060874850    0.23410989768216   -2.19943462150625
O          -1.82589705600565    2.51784269794948   -1.46893427812585
H          -2.38015042354732    1.88930725224591   -1.97896088043242
H          -2.03940812556950    2.02417705055634    0.04248328395286
H          -0.94091345902475    2.12425531289987   -1.46319472085361
O           2.59352324475601    0.57528362568015   -0.18682562564285
H           2.32979734689539    0.50843837054941    1.22897897267072
H           2.72564512406566   -0.37451540274051   -0.42000217455716
H           1.66298768408176    0.76364419026482   -0.44864716984596
O           0.05400284417714   -2.49805982653098    0.27728863038286
H          -0.11066605769296   -1.89285272483276    1.01797376184003
H          -0.66357267065330   -2.27816565612494   -0.33041335844529
H           1.65367526454293   -2.27438476238111   -0.23468822709474
N           1.90470133582146    0.37821587654715    2.25667933579052
H           0.86688366256654    0.13809879867070    2.07431172273974
H           1.97455913105215    1.23025104456709    2.80259549778051
H           2.35363456608783   -0.39500632774852    2.73751047222717
