    26
        -50.45300975  Gyration_radius:  2.43482682094 Dipole_moment: 5.196
 S          -0.25299378631962   -0.09451409337303   -2.07736459882963
O          -0.72679881544636   -0.11840811806260   -3.40973796078689
O          -1.44080183370975   -0.03211868870652   -1.09041666413903
O           0.46138191259878   -1.41293861375246   -1.73917578401304
O           0.64895617473373    0.99777191059177   -1.74383870600085
O           1.61846782938413   -0.09645346476984    1.66524773089668
H           2.21016105156514    0.16724324885288    2.37090559913639
O           0.12045267081746    3.22143548240555   -0.35388084207933
H          -0.42163803912751    3.80453821656713   -0.88716819254369
H           0.44600310822785    2.52319787985957   -0.95483412339889
O           2.80312041467335   -0.08789819316370   -0.67204581569443
H           2.11354244033149    0.42185836909387   -1.14721227614045
H           2.14672255391688   -0.05583652091856    0.82236676473410
H           2.78736890234735   -0.96298877999283   -1.06855720146870
O          -0.73410968809620    1.12447385645021    1.05734161761584
H          -1.15808181683674    0.42218591083851   -0.21544655107913
H           0.10698983963666    0.72237359932112    1.35415560805039
H          -0.48956424905638    2.01054120045693    0.71211996009420
O           0.10229148119247   -2.13607589495651    0.63192877831875
H           0.65777023912808   -1.54589416426296    1.16764188801109
H          -0.83975070804491   -1.95001382157635    0.90089624968232
H           0.29277319670260   -1.73587672422734   -0.76237418359309
N          -2.37814054358198   -1.42506218773818    1.33364797476550
H          -2.82773971858204   -1.29577642631616    0.43526935182882
H          -2.25070400413389   -0.50552131577851    1.74040066125811
H          -2.99567861232020   -1.96024265684276    1.93013071537651
