    26
        -50.45396351  Gyration_radius:  2.61610990648 Dipole_moment: 3.049
 S          -0.11530053111180    0.85238267096871   -0.21959404404806
O          -0.19259257911012    1.47976802657978    1.06813046254674
O           0.09195564538546    1.73193361026462   -1.34284557726347
O           1.01304812309508   -0.17916849799324   -0.17729444494705
O          -1.38740562018607    0.03551526276213   -0.47256739063428
O           2.47132852328067    1.64097625000306   -2.64975222804812
H           1.61316927075277    1.86277497393459   -2.24601692205874
H           3.13986179968976    2.11596138318935   -2.15437991061451
O           1.15703254208426   -0.28591859612610    2.64216955572709
H           0.71990619961482    0.47340557481400    2.22190480574898
H           1.70114097915451   -0.66636676633855    1.94794204823846
O          -0.85095130997884    0.01915017286277   -3.21654023333856
H          -0.63125996016035    0.82587423686151   -2.72042078209489
H          -1.56666829495242   -0.39360223398000   -2.72626715770369
O          -2.47586891632245    0.11732813784080    1.74496052242597
H          -1.97330279651666    0.89501103032028    2.01861961134373
H          -1.92986987657372    0.00828582486421    0.43851664674760
H          -2.08873163708750   -0.65677128688415    2.27864250227862
O           1.54412711472110   -0.86919521146484   -2.49942242097514
H           0.67910156589588   -0.71589314225893   -2.95004119852605
H           2.09662833552521   -0.10009230840650   -2.75040663135241
H           1.25416577726500   -0.53836449763376   -1.15756059136604
N          -1.24680380806384   -1.75865267174686    3.09915050731199
H          -0.31129270857421   -1.34309734565531    3.08062236694316
H          -1.19333135928813   -2.67579834481097    2.67561862721912
H          -1.51808646853257   -1.87544626196582    4.06683189645818
