    26
        -50.46294287  Gyration_radius:  2.57114539025 Dipole_moment: 5.000
 S          -0.98346940874969    0.15854686131820    0.64223241629387
O          -2.40495982879752    0.78666843047809    0.58675957789838
O          -1.18444343095128   -1.27038810686738    0.34992366256860
O          -0.18738413639383    0.78766488424918   -0.40684208714216
O          -0.42196923377552    0.37101711248047    1.95997402462620
O           2.83830328669153   -1.54574137104357   -0.78497898235742
H           3.65620219645459   -1.13452588718331   -0.50211925819220
O          -0.31131668356478    2.92395691787254    2.63575523176622
H          -0.25879921762614    1.96071429103783    2.44881629803019
H          -0.83183108454658    3.00865911305183    3.43638433370482
O          -1.41945828542041    3.12661525666730    0.20110129332493
H          -2.22477416037325    1.76163623944593    0.45183731286754
H          -1.02432267207597    3.30690712064983    1.08075380689813
H          -0.74278313299488    2.62850420238220   -0.28064074302452
O           1.25899284684538   -1.68803296062060    1.37141923624081
H           1.15546343884032   -0.88813604850095    1.90242055474426
H           0.35568134477171   -1.84139481261614    1.05117922954854
H           2.29049172394300   -1.64841811966246    0.02733100398989
O           1.13822081052760   -0.29464142145081   -2.39027460360370
H           0.71890511923191    0.29012391445699   -1.71790591993766
H           1.89245728525041   -0.71487515466788   -1.91234926737327
H           0.12829760753906   -1.32264718583545   -2.33153556338507
N          -0.67914958299661   -2.04651410113523   -2.05389767913974
H          -1.47475428265246   -1.97975403245323   -2.67950319922166
H          -0.96370077622868   -1.74029297653978   -1.05699756519082
H          -0.31989974302430   -2.99565221542862   -2.02884310385190
