    26
        -50.46294294  Gyration_radius:  2.57106958088 Dipole_moment: 4.999
 S           0.90482108619157   -0.53484749328692    0.54941732999600
O           1.85824541874952   -0.40101936783274    1.77054816595269
O           1.67018295109040   -0.01088285502485   -0.59388298492841
O           0.55028534828487   -1.92800256064448    0.37474350768664
O          -0.26029492550973    0.30416156801803    0.81179005372623
O          -1.93219704113145    0.65509868566787   -2.62874747705114
H          -2.78355256049495    0.21742454123307   -2.67032848160428
O          -0.57312378068107   -2.98269315282392    2.52231164625810
H          -0.21963235024096   -2.66283721622147    1.66307555048486
H          -0.01535594860701   -3.71908573200047    2.77871432234816
O          -0.10484632188839   -1.24791863756579   -2.17793592640171
H           0.69969983055928   -0.80086582252882   -1.87007723689816
H          -0.27765383140362   -1.87400774495688   -1.46325441398887
H          -1.26325769527735   -0.06049497931001   -2.52407755381077
O          -1.28778242393366    2.24938256188541   -0.61023920298581
H          -1.67515717613148    1.75140186478970   -1.36916837431782
H          -1.06391605838812    1.55328386354738    0.04951332054348
H           0.06844827344018    2.46847081467644   -1.04784631350269
O          -0.12309380487957   -0.48845627582596    3.40190068884370
H          -0.39479400802621   -1.42662416669488    3.31054009436774
H           1.23884319022429   -0.43460620426520    2.55582159027532
H          -0.57738963513685   -0.02446376311169    2.68324812582235
N           1.15028809300295    2.40296309927331   -1.32886912511344
H           1.26703597887220    2.47756307309893   -2.33456069533096
H           1.43850755298624    1.41352418063862   -1.00295788978985
H           1.70568983834009    3.10353172919333   -0.84967873066340
