    26
        -50.46294301  Gyration_radius:  2.57091125097 Dipole_moment: 5.004
 S           1.05336723323734   -0.08593342801191   -0.53584409194891
O           1.72597644359110   -0.11299037190471   -1.93767195825245
O          -0.26767695567850    0.51344038966957   -0.69703021497762
O           0.93340819028724   -1.49916886735524   -0.14100558676657
O           1.88950851242469    0.66540676905279    0.37702824833927
O          -2.10125633874707   -0.43409149172550    2.54027938341742
H          -2.28761230548056    0.32516614083144    3.09426169247065
O           2.36346103430001    3.13014826618101   -0.45196347997087
H           2.19448929719599    2.25538058152376   -0.03757816927344
H           3.31606906466869    3.20479359995549   -0.52997218263968
O          -2.62914141405985   -0.42266396839327   -0.05836775064003
H          -2.59847114663180   -0.36932024868042    0.92655939787610
H          -1.84809921299166    0.09867995850018   -0.35526126814934
H          -2.04034060657282   -1.71398231839897   -0.31295217620766
O           0.84109723285656    2.23764760492859   -2.47268474448534
H           1.38878692677468    2.78151116532525   -1.86727326554927
H           1.49775481367763    0.78130906230499   -2.32425916273400
H           0.09012064442117    1.94391799474530   -1.93607806931810
O           0.56238343743076   -0.63041361234960    2.36842191703570
H           0.75452397733763   -1.20971222249623    1.61382773128653
H           1.05497206291864    0.16921519515165    2.14360527698119
H          -1.12090188826235   -0.53207030958056    2.53440227505413
N          -1.37335325478320   -2.60111735154416   -0.46044659005517
H          -0.37813922278606   -2.18792402031812   -0.37741579534741
H          -1.50185685352163   -3.01940150032397   -1.37550941405266
H          -1.51906966152900   -3.28782701718416    0.27292800783183
