    26
        -50.46294291  Gyration_radius:  2.57131443839 Dipole_moment: 5.003
 S           0.48903685362159    0.26602424879692   -1.04610971085940
O           0.51230062917291    1.35484818736210   -2.15601403037060
O           0.54879665410096   -1.04244652907164   -1.66372303366783
O           1.67306293088358    0.54034594608988   -0.21527806932404
O          -0.73357914397926    0.45783941805893   -0.27245677784820
O          -0.11391075335098   -1.56487805360415    2.93383253285926
H          -0.69017613145995   -2.32703377375507    3.00571521744452
O          -1.41162624523395   -1.46473862141230   -3.38555905053081
H          -0.99049542593065   -1.64563591929552   -4.22761125636172
H          -0.68573170405598   -1.42040378301268   -2.72477047147811
O          -1.05402645823389    0.83255737943230    2.30045992058282
H           0.24075908283461    1.46448561944534    2.23612219271963
H          -1.14150701132813    0.69451690331977    1.32930560155053
H          -0.83339446320707   -0.06131618034640    2.65569030883791
O           1.40089599688000   -1.94274733402214    0.75959951097842
H           1.78281365084768   -1.08093702500044    0.52863281502120
H           0.47896490222737   -1.74369124055952    2.16766768367283
H           0.95449857918455   -2.19513909813389   -0.05870085376567
O          -1.99609826297122    1.03392646811375   -2.60300440758046
H          -0.43097392472969    1.36815347771537   -2.48979234121340
H          -1.99677976252630    0.14789087794263   -3.02409286030286
H          -2.01867741039279    0.85930945759953   -1.65058283445871
N           1.27484717718896    1.81421612060724    1.98804430151894
H           1.94089874078227    1.49321704503588    2.68370746748676
H           1.31654117839935    2.82282779324656    1.88899340313170
H           1.48356031132776    1.33880863551442    1.03992474198080
