    26
        -50.46972954  Gyration_radius:  2.4309779021 Dipole_moment: 5.129
 S           1.53240485799983    0.16106345575395    0.30469338325852
O           0.90385652089273    1.48886634724361    0.45876749195350
O           0.44342911358916   -0.69745997438070   -0.46893547245892
O           2.66147606212122    0.19030921173827   -0.58743898558231
O           1.74957175119385   -0.47265616528463    1.58331406686904
O           0.18674126794827   -2.50191054854479    2.26014957740998
H           0.82670348090208   -1.78032962944477    2.07084548721738
H           0.68520857857578   -3.31740469252718    2.20443828590740
O          -2.50563068836297    0.07353459790236   -1.26827023388730
H          -2.37402180816346   -0.19603059230856   -0.34158773641228
H          -2.51138845482787   -0.73950018925052   -1.77689217953397
O          -0.47783405146487    0.98821375310108    2.64989337524145
H           0.05402792007632    1.34299462946429    1.90782662924095
H           0.14841286100932    0.47979209013746    3.17340430160621
O           1.56257914057359    0.32743138133665   -2.92956417881628
H           2.10099806276271    0.31782630995425   -2.09426241044354
H           1.36907523681567   -0.59629079847611   -3.10187074544376
H           0.31300231287337    1.17508524452205   -2.37998469549170
O          -1.60166296111584   -0.85024534497105    1.14734150831170
H          -1.27764943717068   -1.65090078492816    1.59695470225991
H          -1.36364311391477   -0.11433914541616    1.77000223727602
H          -0.33705380611160   -0.79224856696267    0.14158659893603
N          -0.37701003685639    1.68873803002971   -1.75949397123351
H          -0.58680543099177    2.61496054268396   -2.11619084182576
H           0.12156257197347    1.74038884609640   -0.81049371827073
H          -1.24634996032406    1.12011202252805   -1.63423251607977
