    26
        -50.46294304  Gyration_radius:  2.57087285074 Dipole_moment: 5.004
 S           0.75465885891876    0.77314679773082    0.48785952311697
O           1.66825162349775    0.25272663374599   -0.54276420173322
O           1.64701421843757    1.00492086470253    1.74013430435545
O           0.15130896430595    2.03004862047893    0.09631437850281
O          -0.24211637629993   -0.23235847947951    0.84204491745244
O          -1.62231871068563   -1.38308237960558   -2.55197474246914
H          -2.53705292692349   -1.13000990933304   -2.68357647552354
O          -1.26782645828171    3.13768890633306    2.03158837909092
H          -0.81362404298345    2.77464626999154    1.23946719775765
H          -0.87440300287108    3.99756679576003    2.18955682676807
O          -0.40152366111002    0.93079490315734    3.28709132267779
H           0.99050443575428    1.02670071980861    2.49497333913852
H          -0.84126803942362    1.77467785311116    3.04876290604483
H          -0.71866688288776    0.28956704314594    2.63411362126760
O          -0.21505469773397    0.88390635388299   -2.34406528650453
H          -1.10730785184533   -0.54329599478310   -2.53803083124729
H          -0.54281282471818    1.55784869561464   -1.73494211848069
H           0.64101772391008    0.65013997047337   -1.95113514153916
O          -0.80404412595740   -2.52137722021452   -0.30112175610924
H          -1.23538054241498   -2.22028395067215   -1.13610666701257
H           0.59139834237320   -2.53066851080407   -0.66454366308673
H          -0.75271243132376   -1.70934147000011    0.25364823917821
N           1.65495785318068   -2.29531741129010   -0.92324498369991
H           1.73230298118788   -1.23276211456350   -0.74113102416725
H           1.83902314667124   -2.48717331395611   -1.90299055308367
H           2.30567442723837   -2.79870967316859   -0.32992752069253
