    26
        -50.46294298  Gyration_radius:  2.57122634978 Dipole_moment: 5.002
 S           0.00630969235863    1.12854626804986   -0.35883258678257
O          -1.44911993960591    1.00167213031125   -0.17616437189403
O           0.34938697413382    2.57015802343845    0.11264880345067
O           0.71409309403146    0.20241897315704    0.51950598078016
O           0.39606359959726    0.97747977688242   -1.74527313763241
O          -1.02818963780447   -3.16279477624623   -0.10970639371595
H          -0.45804360007096   -3.80009159548699   -0.54210069842527
O           2.95793463897142    1.48165731674003   -2.15666710176677
H           2.98787787809658    2.20029878155582   -2.79054732855774
H           2.01316895070441    1.21982363759263   -2.09033933659778
O          -1.33689027795731   -1.12029356741564   -1.81148859189662
H          -1.18309252220788   -2.44615487592525   -0.76772425810828
H          -1.67879713681815   -0.37322102120188   -1.29478588051420
H          -0.54142373297624   -0.74596280140468   -2.21116286874798
O           2.80750376066033    1.92694778864942    0.48454748075078
H           1.33143060511676    2.52731994117854    0.30021622182567
H           2.42059257201057    1.07312482953639    0.72819329692833
H           3.10954897503316    1.81402590040199   -0.44196598066694
O          -0.21018555674171   -1.76074425895884    1.98733316383222
H          -1.40372013517401   -0.95623163780734    2.07715030274814
H          -0.45420756187350   -2.42151736158455    1.29615267726825
H           0.32249146656268   -1.08784702918068    1.50426118201233
N          -2.24886338292114   -0.23557363584974    1.93696372209595
H          -2.36486549402223    0.36845478722821    2.74350618294312
H          -3.11207239493832   -0.72768258130209    1.72894654337084
H          -1.94693085415695    0.34618701766017    1.07733295734905
