    26
        -50.46294281  Gyration_radius:  2.57157724888 Dipole_moment: 5.015
 S          -0.68837189604655    0.16372698764071   -0.95076218414328
O          -0.82464333225265   -0.21272611656159   -2.45341642765539
O          -1.09091038915011    1.54281875351607   -0.76850602538271
O          -1.57649374314358   -0.77068998939224   -0.23954071762387
O           0.70214727404837   -0.06158434251935   -0.56890151284278
O           0.60728842918672   -0.09426974811918    3.27140487103691
H           1.06320302997807    0.65223413769324    3.66261533762413
O           0.29495451931913    3.22916398566683   -2.25877091920220
H          -0.34465969399768    3.67970016987385   -2.81287813360053
H          -0.22895585390324    2.68715136381393   -1.62842357177806
O          -1.43482300919619    0.89901174729400    1.85411758161530
H          -1.73290898771219    0.19490323661628    1.25641424706493
H          -0.17511304896587    0.27941754969779    2.80379573310872
H          -1.24657501634484    1.62173046483803    1.24192152498088
O           1.42008038471219    0.90898990705375   -2.99829095368647
H           1.65168867441878    0.59891153480877   -2.11040867864764
H          -0.00146273460432    0.17722027425504   -2.86796376665220
H           1.18494372050284    1.85456417816964   -2.88416981726649
O           1.70164808124712   -1.54815133675608    1.34192741922106
H           1.52339868422879   -0.93711025925256    0.59027783070490
H           1.44898641411970   -1.03054662852213    2.14310998201717
H           0.53741932330530   -2.37280216815058    1.13161324016385
N          -0.46408270992558   -2.80591849787268    0.88136729555646
H          -0.97606172666334   -3.04235471470169    1.72546290641478
H          -0.38288278702783   -3.61295431569450    0.27236056342728
H          -0.96781363614603   -2.00043617335350    0.36564419548547
