    26
        -50.46294284  Gyration_radius:  2.57140791253 Dipole_moment: 5.004
 S          -0.56291600156916   -0.31145033109051   -0.99460167657843
O          -0.31458335093222   -0.77440259543947   -2.45827533758627
O          -1.70140371789323   -1.02721372849509   -0.45732108477865
O           0.66005650801191   -0.57103700520747   -0.24165128249579
O          -0.81336503009787    1.13631709702461   -1.08795975069402
O           0.23530683578001    1.52592212570545    2.94770888061232
H           0.13954001440314    0.98687984364342    3.73413255326094
O          -1.40574032584590   -3.65255069026285   -0.53874541479176
H          -2.13273721595669   -3.98500981532102   -1.06799308487701
H          -1.57892659959123   -2.69335874924772   -0.41440946341020
O          -1.86104807701792    0.97963349578990    1.37535369417848
H          -0.57106599964607    1.36201075327431    2.40606664627744
H          -1.63929036370337    1.30327065252259    0.48762676829629
H          -2.06718070836412    0.05088323109381    1.20946075796678
O           0.91252266355278   -2.87876081614028   -1.64500503690540
H           0.16665158445039   -3.39340710350178   -1.26925488854722
H           0.16758668813097   -1.64437914532273   -2.34925242803070
H           1.19580534995049   -2.28911297546168   -0.93078612833921
O           2.14593302642698    1.06254762555758    1.16797962575893
H           1.69700879767610    2.06605350671905    0.23442402221393
H           1.56522268459953    1.22782798609450    1.94856741500361
H           1.72179198807795    0.30413785780844    0.70457327178751
N           1.15864663714745    2.69349932258065   -0.52030570143716
H           0.80096812487636    3.54282404378342   -0.09450416939316
H           0.33322393767306    2.06759883398632   -0.82922857912516
H           1.74799256988597    2.91127658985783   -1.31659961844084
