    26
        -50.46294270  Gyration_radius:  2.57160524539 Dipole_moment: 5.008
 S          -0.37565483080779   -1.09920373543431   -0.23105921912679
O           0.52217010554011   -1.88115807865868    0.59325153800744
O           0.29399680787085    0.03783057310929   -0.85451502338846
O          -0.92916141776673   -1.99657532752298   -1.37428360206631
O          -1.56392997360358   -0.65246766959004    0.51462897177664
O           0.64589373683627    2.57896507805239    2.00268806614824
H           1.55787447492349    2.72470963635026    2.25803280004745
O           2.52070456102199   -2.94522092493549   -0.77050974355619
H           1.84971043031299   -2.54522656537660   -0.17444646463467
H           2.45103338553439   -3.89333105575039   -0.64666838210096
O          -0.10876631785342    2.60713420976533   -0.53914895600110
H           0.25106251357104    2.74936882950532    0.36876865236032
H           0.19632976776638    1.70326089248862   -0.78360606210610
H          -1.47361070320680    2.22686188361341   -0.27085838044678
O           0.10222024555319    0.00722051990812    2.50939498165416
H           0.44016368407741    1.64786585449843    2.24991323686213
H          -0.70575798043165   -0.21160820698128    2.01825825218768
H           0.72481561556013   -0.65639829665422    2.18629698770177
O           1.21972460867943   -1.67568089926179   -2.74365584821515
H           1.85805721226219   -2.19540299132621   -2.21000588905918
H          -0.18288340225093   -2.01296510857161   -2.04056912807924
H           1.20484267896365   -0.79850369140051   -2.33332174997396
N          -2.43306318832426    1.71727065502728   -0.00031989057676
H          -2.13412063680563    0.69590264701282    0.18892342741791
H          -3.10284936842978    1.74911512110103   -0.76137605115972
H          -2.82880200896088    2.11823666101797    0.84418745633193
