    26
        -50.45538178  Gyration_radius:  2.56580721119 Dipole_moment: 4.084
 S           0.75691085908277    0.65957836216951    0.30417708259901
O           0.87014339942964    2.17167561150388    0.59746128261193
O           0.80396964003035   -0.01961922886635    1.59684257725568
O          -0.58126588266341    0.45013605282774   -0.30237870927015
O           1.80211248375320    0.25739603733911   -0.60473846780735
O          -0.91624343670332   -3.26479207402728    0.30699456014072
H          -0.92155088511365   -3.90893433632546    1.01797382262079
O          -1.26114494078456   -0.48801063316458    3.08181337604599
H          -0.38868895259077   -0.29865711819337    2.64770282093286
H          -1.53787524714273    0.33189113988221    3.49505617775537
O           1.49429484445801   -2.25964538356865    0.36483458166720
H           1.81318740073108   -1.72516716504595   -0.37475776162830
H           1.37267022398239   -1.59201388327448    1.06368209064553
H           0.02572494500385   -2.94624403026656    0.22983290848622
O           1.91805650460517    2.73130913118706   -1.65109417484439
H           2.28575533556721    1.83676743535229   -1.58734640016669
H           1.10932324771124    2.62904114182411   -2.21155857701548
H           1.29145604954261    2.56437400299266   -0.23436838180399
O          -2.15086955801605   -1.10090386980148    0.77950647452389
H          -1.94419519980814   -0.90912497097751    1.76344669033454
H          -1.51480750537473   -0.40160502942351    0.26059149009585
H          -1.73418711869189   -2.02307102177269    0.56301577983770
N          -0.41390823115973    1.97029786057718   -2.75439722999636
H          -1.21077919352428    2.58752687252493   -2.84749197699781
H          -0.57262037797027    1.38085770474972   -1.93771415883344
H          -0.39546843431835    1.36693739170887   -3.56708587724498
