    26
        -50.45538175  Gyration_radius:  2.56581737062 Dipole_moment: 4.088
 S           0.12364206199114    0.91204613372315    0.50327988444702
O           0.49295790050285    0.02251090882461   -0.62570005944706
O           1.17141913486169    2.04644664360953    0.52451383701669
O          -1.19417278405417    1.46617431662245    0.31141855121107
O           0.27937293273106    0.17804221434485    1.75689438793816
O          -1.41570986624673   -3.06505146620271    0.42936733605798
H          -1.48724233127809   -3.69032703463981    1.15343151515909
O           1.91495947476422   -1.79458515932264    2.10832811279832
H           1.31143150567521   -1.00664902148378    2.12660350215925
H           2.80734568385677   -1.44944533702848    2.17237636297989
O          -2.16883789735960   -0.78846791637990    1.46550194329492
H          -2.36773226857299   -0.03852177082899    0.88891428915138
H          -1.80575179584983   -2.21005386867180    0.76343214805298
H          -1.32955711816022   -0.51422046462872    1.87689134308221
O          -0.17243748502259    3.58523837771238   -0.98999723178714
H          -0.02701280355448    3.10458332629925   -1.84233397715471
H          -0.93675853091256    3.14469073296385   -0.58856954480989
H           0.77380642846796    2.77472617059769   -0.05434057834912
O           0.94142750259785   -2.35138909379097   -0.17421348062823
H           0.76672233214066   -1.32075400620648   -0.43910236140493
H           1.41514955851161   -2.27645736199310    0.73008489599940
H          -0.00559091448134   -2.72241164881309    0.01686470350362
N           0.19240907302518    1.75065135737557   -2.92254010626918
H          -0.59895113440790    1.47890296656533   -3.49233319664357
H           0.30078040999534    1.04759506151647   -2.19204709276402
H           1.01833091078401    1.71672595987119   -3.50672517361869
