    26
        -50.45538173  Gyration_radius:  2.56580845459 Dipole_moment: 4.091
 S           0.51193300691887    0.29733120137310   -0.86602163767708
O           0.49836110928227    0.13160368075827    0.60861996728014
O           0.61520665187691   -0.98100233168940   -1.52613278304872
O          -0.65681294767812    1.07688537377559   -1.26713312009793
O           1.75022889127239    1.15918925446113   -1.19585271744852
O          -3.12477966655154   -0.85919116532278    1.03796185422264
H          -4.01382410845546   -0.53953934096106    0.87140251660516
O          -1.86720336184162    2.79018005022044    0.24605473705210
H          -1.44778417287805    2.22552207380574   -0.45438925847429
H          -1.33079500594790    3.58269545629795    0.30732448725967
O          -1.47393987580543    0.87509651549441    1.87255911719913
H          -0.57620166426494    0.53666854570843    1.38025317533492
H          -1.71681617804297    1.71921085388488    1.34694173757458
H          -2.17819411057912    0.15842251054861    1.62471193627719
O           3.29964098865259   -0.83276809577452   -1.51032822608491
H           3.39740756197530   -1.08553767046781   -0.55892496964218
H           2.49297628540794   -1.28440408137563   -1.80135200279643
H           2.49223955412285    0.49129478264052   -1.35963442412220
O          -2.08661919879582   -1.15087860075559   -1.34110488226383
H          -1.26225349690271   -1.64401900954959   -1.44933142229021
H          -2.74235205731080   -1.08879797319017    0.14586643083361
H          -1.80038946320700   -0.23429136241437   -1.50465383699796
N           2.94017353210203   -1.33132972863181    1.10793870012765
H           2.04569905037465   -0.84581743239447    1.04603625345071
H           3.48230411613572   -0.88514494494084    1.83698219242119
H           2.75179456015156   -2.28137858155374    1.40220615528491
