    26
        -50.45538166  Gyration_radius:  2.56585170655 Dipole_moment: 4.090
 S           0.05031304132389    1.03441218328034    0.16915735466454
O          -0.00387393247844    1.25443477628369   -1.27413715066974
O          -1.21479132268196    1.22285180910179    0.83591993119754
O           0.58873498638357   -0.32349325282867    0.43033680930446
O           1.09062018165364    2.03003677843812    0.72741241080131
O          -1.49379371277509   -2.25443168153123   -2.06499646284247
H          -1.68667907672718   -2.30004713319522   -3.00367692951345
O           1.53399888024299    0.08861901114731   -2.99620217837863
H           0.94316666768564    0.65742567867913   -2.43692201664678
H           2.40787387481020    0.48030599125497   -2.94614384696856
O          -2.38234694999270    0.09162004462597   -1.33669671171690
H          -1.92454038907063   -1.41746881853061   -1.73524735178236
H          -2.47859658040873    0.30007390128539   -0.39767092695145
H          -1.61765463927790    0.63881907505182   -1.59094864580678
O           0.93629795115525   -1.85086559089631   -1.46362219315689
H           1.25848881783672   -1.18755371448380   -2.17360354446538
H           0.81628137336264   -1.22858868400243   -0.59114505403536
H          -0.03251635706853   -2.11056899837975   -1.71840529681479
O           0.02065973199589    2.16243625399398    3.03080847299098
H          -0.80182084750475    1.99610534299333    2.54570350887140
H           0.29658210663150    1.27330550146427    3.36534396164620
H           0.79744142188310    2.20059402830374    1.68053888350723
N           0.67402985715504   -0.43083736044201    3.31749867448620
H           0.65850100376964   -0.51500584740040    2.30150090028740
H          -0.01858161131404   -1.06983143959066    3.68720632931987
H           1.58220552331632   -0.74234784436645    3.63799108262831
