    26
        -50.45538182  Gyration_radius:  2.56573924396 Dipole_moment: 4.087
 S          -0.98870134291290   -0.13906599624417   -0.32270693757266
O          -0.03402699285468    0.50372726204419    0.61409180330067
O          -0.55937860167738    0.12523499620343   -1.69396648201954
O          -1.14216559739333   -1.54070470025968   -0.01918930617738
O          -2.33817666397685    0.58858033217985   -0.13620794518763
O           3.19667149993131   -0.62091358593161   -0.99179785148147
H           3.67725023202485   -0.57422016096189   -1.82081227445605
O           0.82612414930164    2.18310072508368   -2.42484944818239
H           0.25647298051139    2.95449399062952   -2.42835487410432
H           0.23111536715253    1.40016780487024   -2.28877245577332
O           2.02059033494435    1.51080681267266   -0.28267840624343
H           2.58257123545791    0.67888181083269   -0.53332877308385
H           1.66311750839226    1.89881880096859   -1.15983168281953
H           1.13582585347714    1.09684784858062    0.17418930375218
O           1.04196758211326   -1.98019795765506   -1.57002851905708
H           0.48594769061209   -2.32915196928074   -0.86049962248894
H           0.49059657707820   -1.26170359110718   -1.92869646499097
H           2.42527051317423   -1.23187762578097   -1.15379975006107
O          -3.17925104452471   -1.01076189296376    1.65313354462288
H          -2.63779871435777   -1.66157384448113    1.18121121950868
H          -2.60560348446969   -0.70211797658930    2.39760185610074
H          -2.82260851189747    0.05431069108034    0.57343923089011
N          -1.18078040510178   -0.08957875673739    3.19964587221259
H          -0.61608840755291   -0.75325803788414    3.71482145896807
H          -1.25544048995091    0.75055849105603    3.75924635733870
H          -0.67350123750382    0.14959654965554    2.34814014697667
