    26
        -50.45538181  Gyration_radius:  2.56584738973 Dipole_moment: 4.085
 S           0.37100182791744    0.96703920816624   -0.17312296924066
O          -0.86019950570050    1.71340738326159   -0.08706872041097
O           0.31783271115724   -0.24173775457746    0.68604387893889
O           0.72664309099959    0.56815935549333   -1.53286785558871
O           1.54213409612656    1.82467457358248    0.35427617984742
O          -1.68105353760766   -2.49236931611225   -1.59989690699663
H          -1.65677720658318   -2.87750272760783   -2.47824563802008
O           2.10533898673409   -1.53740223170902   -2.12808394584733
H           1.64139685910497   -0.66536916869341   -2.02837491306215
H           3.02487177633232   -1.37800789630319   -1.90757438155905
O           0.09798145728398    3.16068326818340    1.96573734863759
H          -0.04291967781765    2.45592194449927    2.64549631478843
H           1.12137061908419    2.44344567231528    1.03527443755214
H          -0.59733717480484    3.00784065943553    1.30796870525742
O           0.52918183212677   -2.45699338576094   -0.35699609806224
H           1.21771440305016   -2.24801392860812   -1.08520003676514
H           0.43959319831809   -1.51703381424022    0.16421309104834
H          -0.38299585960582   -2.56449833746715   -0.83338219878104
O          -1.82882645914473    0.08080101075644   -2.02834320764267
H          -2.05788998628278    0.68031750614244   -1.30561462988481
H          -0.88418496676142    0.27517369520427   -2.16512311933012
H          -1.85338058896292   -1.51884494671321   -1.73023813599547
N          -0.29434997190683    0.85280880457081    3.29023649567967
H          -0.10901316614071    0.35718566517831    2.41866396631286
H          -1.23293756325465    0.61276491007560    3.58391513104040
H           0.34680480583821    0.49754984105955    3.98830718799885
