    26
        -50.45300984  Gyration_radius:  2.43486916801 Dipole_moment: 5.196
 S           1.55806919634675    1.16888654144040    0.77179370070535
O           0.22766500812292    0.94136491470929    1.52489480854539
O           2.18040707119020   -0.23188903056129    0.65538788937836
O           1.22706870543844    1.62100759008263   -0.57128511832208
O           2.40184951161569    2.02260079612358    1.51975323533451
O          -0.54386913899035   -1.41320791627406   -1.76318131390830
H          -0.94743612360566   -1.75012873239091   -2.56387929251932
O          -1.05853177254055    2.70598090312041   -1.44019488108017
H          -0.14087101771567    2.42032010909907   -1.26435948657341
H          -1.13309209373849    3.59806855211156   -1.09828247207073
O           0.47227016125024   -2.06319264082306    0.70084167916553
H           0.04470432915180   -2.03756853446844   -0.17121324193071
H           1.47830874061452   -1.00111934295991    0.70327331906685
H          -0.23892495570373   -1.84364646289541    1.36453915638038
O           1.81377339029824   -0.36148859252660   -2.21269306626859
H           0.33513253451549   -1.02877808389555   -2.02902274153206
H           1.65961834753654    0.47583560872133   -1.72666701307669
H           2.49535989417389   -0.82007470869540   -1.71430512799428
O          -1.64249275399288    0.45918684344863   -0.12494553343429
H          -0.52895351912831    0.73331139199017    0.86482606957812
H          -1.64497685228371    1.29358388915509   -0.64242696090156
H          -1.32724248589685   -0.22823351025726   -0.74555022588381
N          -1.49114925337575   -1.30776577240117    2.35150902414976
H          -1.04307119185894   -0.58764992866762    2.90526872901486
H          -2.00496634029779   -1.91981471891088    2.97195389053385
H          -2.14864938112615   -0.84558915427537    1.73396497364305
