    26
        -50.46147052  Gyration_radius:  2.59202941258 Dipole_moment: 4.229
 S           0.08455258652350    0.35305193763310    0.65152124487432
O           0.50417468730849    1.76507057919177    0.66566786357642
O          -0.86540804796906    0.12761788099864   -0.42886953267938
O           1.39533680486738   -0.41983133124390    0.25323941519190
O          -0.36661815830378   -0.12566029282256    1.93592675233055
O          -0.60432766996214   -3.83847756875749    0.91256933984070
H          -1.00340719653604   -4.54737431273126    1.41926654246758
H          -1.28859049339990   -3.12941767488328    0.84493958089710
O          -1.04201795993427    3.34836493474187   -0.88206634100322
H          -1.94029215628195    3.36527361133497   -0.54856277995300
H          -0.51781756679902    2.85813243178756   -0.21760301912039
O          -2.25114176597916   -1.74337297015872    0.92774781235155
H          -2.07393527188941   -1.24631989599830    0.11600018110330
H          -1.77917439299526   -1.21620844414864    1.59387399678819
O          -0.34730569512210    1.43904617465457   -2.64127702501325
H          -0.72454493493840    2.28129239998631   -2.31415836599349
H           1.05339446037909    1.55425687440807   -2.13952400312166
H          -0.65153208439012    0.79046771928250   -1.96312397813633
O           1.26568574892529   -2.26246082444566    1.99334491437847
H           0.69169203358987   -2.95453129983421    1.58881357692247
H           1.45979430105783   -1.21020574130502    0.88328276810556
H           0.66240787146954   -1.65704699482466    2.45081233078575
N           1.92457262936906    1.61696753653700   -1.46806038115678
H           2.58003946441955    2.34663163408363   -1.72886538994288
H           2.37485881693871    0.70621403036028   -1.39125334921143
H           1.45960398965435    1.79851961614941   -0.51364215428204
