    26
        -50.46147056  Gyration_radius:  2.59166836887 Dipole_moment: 4.224
 S           0.47925684289869    0.57202491928045   -0.00935910239303
O          -0.13485842396960    0.32563435090774   -1.43637246725993
O           0.00700655648853    1.92211275940310    0.34367389630558
O          -0.13002578539493   -0.41393027773805    0.87223216895099
O           1.91603504159721    0.46973416201026   -0.09640090388618
O          -1.26699336722572    2.01378281820000    2.72298821094440
H          -0.71928600848654    2.07373977937050    1.91485357105056
H          -0.66579317173210    1.78064911105339    3.43195423064566
O           1.96227368454427   -3.08950404552509   -1.58372923015709
H           1.96061596521441   -2.81102563291181   -0.63610893526986
H           2.72543864423896   -3.65861900089449   -1.69361346696069
O           2.02532391469016   -2.03131191432371    0.86106463608789
H           2.34474965501968   -1.14875492297118    0.60912294331257
H           1.10636872523689   -1.84986594682787    1.10604288198555
O          -2.63606260565216    0.05844350453469    1.48816761754695
H          -1.75895077031844   -0.35113292850728    1.29836201243873
H          -2.41648467874074    0.72339764132516    2.17254784730182
H          -2.67823612174746    0.92233750734745    0.27199533955300
O           1.94131599167917   -0.60176857912561   -2.56353019531810
H           0.60940320701829   -0.06552872624570   -2.00087480283600
H           2.41273762002583   -0.17930597964361   -1.82937720980327
H           1.93279990233311   -1.56527379769351   -2.35493670586943
N          -2.37554066176657    1.58726229655775   -0.55256352934899
H          -1.39501743693098    1.90306590644466   -0.23762783693026
H          -3.01080321816782    2.36614267371152   -0.69316249869226
H          -2.23527349088220    1.04769430227192   -1.40534845141408
