    26
        -50.45491424  Gyration_radius:  2.43192677272 Dipole_moment: 6.963
 S          -0.08919924938949   -0.01038319834431   -1.93961286770744
O           0.11863004928206    0.07634828346451   -3.34113958908421
O          -0.88170565008837    1.13562982230604   -1.39734342263115
O          -0.99269471142221   -1.25996292445095   -1.61887862272008
O           1.12091211977655   -0.17236873481318   -1.13642261136015
O          -0.08761065290826    0.00432857524041    2.37089125943019
H           0.01357058878282    0.21661268796323    3.29889548735483
O           0.16982253045657    3.25000541722752   -0.16524872623818
H           0.60987220354252    3.82721714696784   -0.79101354947724
H          -0.25169129425675    2.54350424588478   -0.69788151247986
O           1.99403566653627   -2.62724701567011   -0.66095411959003
H           2.03616088949327   -3.09288782987111   -1.49737355958287
H           1.83998060934984   -1.68390683478761   -0.88224397577133
O           1.63139590764405    1.29450797662686    1.00702530847900
H           1.20452285488811    2.13241180506548    0.73893120564063
H           0.64516898730593    0.51738405722281    1.87973326955966
H           1.61405587973873    0.74276392391448    0.19623773346291
O          -0.27993504141687   -2.23595084405023    0.68487523006213
H           0.57413994366938   -2.59457240756464    0.36358810481610
H          -0.04522647280366   -1.57851089850464    1.35777481314757
H          -0.68336476953303   -1.65136121508695   -0.75686616749568
N          -2.07943448309312    0.23000813914687    0.61887506302385
H          -1.37512906472713    0.20434195365972    1.40159640526994
H          -2.34694206422313   -0.72397195900045    0.38241984255098
H          -2.89015416906090    0.78620816096006    0.87097444819432
H          -1.56918060754238    0.66985164649384   -0.28683944685244
