    26
        -50.46742645  Gyration_radius:  2.40225481118 Dipole_moment: 4.779
 S           1.14696141534111   -0.48135014454313   -1.19091060606830
O           0.33027645873004    0.86678216079996   -1.18986427406979
O           0.42870022196471   -1.40301884511350   -0.31077943089228
O           1.04736394838496   -0.90050496117470   -2.58682911998778
O           2.48327745693625   -0.20980117388240   -0.72019455105395
O          -1.68961408010146    0.49841125285195    1.87922608404227
H          -2.29430082015361    0.53231619070511    2.62115771783001
O           2.48092234375373    0.44796332733596    1.79411596349840
H           3.37043792007297    0.72066647646091    2.02412173005177
H           2.52881516625629    0.14314042241050    0.84974485108268
O          -2.09922825254667   -0.86995953905869   -0.51762753100436
H          -1.19486336836541   -1.24749562720327   -0.38934242834485
H          -2.17793167576121   -0.22919271834498    0.20940119238777
O           0.41595102916722    2.05539202333327    1.07754583632165
H           1.16847256392589    1.59737044840026    1.49929844170175
H           0.41575063818236    1.37479773123144   -0.32150874979087
H          -0.39554983635848    1.66320896508719    1.44816362227642
O           0.28433226252154   -1.16346262592015    2.32994587121050
H           0.35994892302048   -1.45747058909635    1.39946783399330
H           1.10073303114825   -0.66604218593459    2.48060756679620
H          -0.99740478012832   -0.18287471820067    2.11442387519317
N          -1.37158562525498   -0.21341459501383   -2.92988960586173
H          -1.79308666385420   -0.41946826603355   -1.95711796844956
H          -1.34946807265620    0.79119040002821   -3.08050986704104
H          -0.32151635968302   -0.55650812996121   -2.86312725775597
H          -1.87739383454660   -0.69067526916284   -3.66951919606095
