    26
        -50.46742633  Gyration_radius:  2.4023681765 Dipole_moment: 4.783
 S           1.61168179874894   -0.58177390694393    0.17535045367809
O           0.44968216801929   -1.12849979647781    0.87575864588427
O           2.37164175104830    0.32121701996326    1.00496502943795
O           2.38459361898758   -1.64041114736129   -0.46965819847203
O           1.05283463116893    0.22114592782407   -1.06063901972837
O          -2.46418116016966    0.74981164279404   -0.05697891161003
H          -3.39700420691048    0.93791218985193    0.05062344199290
O           0.82894034064769    2.08504731665812    2.12911017531135
H           1.44137429694128    1.39204204261574    1.76621831434402
H           1.39119955881132    2.71970911028627    2.57584811711861
O          -1.35474908395871   -1.66613176781698   -0.90511936848974
H          -0.75316362072804   -1.59648468244590   -0.12403797425448
H          -1.83732325204667   -0.82221502345434   -0.89030916184981
O          -0.23858412030223    2.31756905568928   -0.35437483062280
H           0.05699074976803    2.41421187485551    0.57148786660213
H           0.60168424186044    1.08409507637530   -0.79398198756374
H          -1.12312093446909    1.90950363855455   -0.32619890320512
O          -1.30546652596041    0.31376048337182    2.25165063754323
H          -0.73765344636782    1.06412201451986    2.47788829199189
H          -2.11178577880645    0.55536598887891    0.85758553925585
H          -0.67989634727521   -0.35454555776732    1.90545213197125
N           0.75888755362375   -2.08023569665272   -2.36813149635312
H          -0.19004105048903   -1.91039255967488   -1.88122620856773
H           0.92577812214312   -1.34086637680979   -3.04480857350738
H           1.51381655115509   -1.96583319428488   -1.56695326754756
H           0.80386410455885   -2.99812369254761   -2.79952074335972
