    26
        -50.46066643  Gyration_radius:  2.40225787554 Dipole_moment: 5.229
 S           0.61789234348483    1.06869533393108   -1.17219630625813
O           0.10530221839473    1.49715713185070   -2.46579972997261
O           0.75062414887686   -0.40295282147825   -1.13906556809288
O           1.80724409215171    1.72790192198619   -0.70548470023872
O          -0.55542354062540    1.39483662709897   -0.17701230972909
O          -0.96084149777494   -1.33709978802235    1.97165013393256
H          -1.52638885183834   -1.30461595905952    1.19233616513201
O           2.66308699031732    0.64716451105246    1.52100462260760
H           3.39916833474285    1.17370409379824    1.83687997655548
H           2.42046595991281    1.02437942762559    0.63993735023963
O          -2.61596980873610   -0.28922980353919   -0.30560267108566
H          -1.90775036103933    0.38470964307514   -0.19910098319733
H          -3.38570280454704    0.05512968539909    0.15062116921046
O           0.08431773810742    1.07789793800670    2.21425555827396
H          -0.34479515605596    0.19067538582178    2.32274501458043
H           1.04780887472497    0.91300697144429    2.17434605822974
H          -0.25389764969591    1.34618491664518    0.82861230174506
O           1.47006571801294   -1.86701151984722    0.98954201641783
H          -0.10107759102855   -1.71471591746623    1.67468544577630
H           1.28168941584631   -1.44111509319526    0.13292072610575
H           2.09297674879823   -1.26709196601741    1.41788695879917
N          -1.26679043630937   -0.60901154519970   -2.62185214845986
H          -0.90702258662081    0.39332240698811   -2.79811200430648
H          -0.42110297416105   -0.89721328112773   -2.02997213872814
H          -2.08631500086255   -0.60223529529336   -1.99379512425821
H          -1.40756433537388   -1.16247301512690   -3.45942981312771
