    26
        -50.45444088  Gyration_radius:  2.55373888343 Dipole_moment: 4.677
 S          -0.28378300871430    1.35687457277849    0.30206851800550
O          -0.66710720029140    0.82214153511352    1.58970767607622
O           1.13973938345796    0.91433526267507   -0.02064107261212
O          -1.17729891198117    1.01651365731878   -0.76798840295022
O          -0.15216910090414    2.88251119666378    0.39404331759802
O          -1.06899042369005   -2.55424876396234   -0.21872105118399
H          -1.26227091891435   -3.42322596534542    0.13600173958033
O           1.83617309000877   -1.32422491645764   -2.65455478087540
H           0.86245162237131   -1.23954478231868   -2.79912123772495
H           2.20870441260903   -0.46117043422340   -2.84188393916213
O          -0.80276406905795   -1.01542677526650   -2.56319885059853
H          -1.02744909777788   -1.72838581714692   -1.94902834986852
H          -0.97435440177716   -0.19454206442138   -2.07247175800361
O          -2.67959511583873   -0.74732367564481    0.80981568788985
H          -2.88624047319248   -0.20688913807987    0.04013100968362
H          -1.71328932495084   -1.92638480397992    0.20358035497362
H          -2.02164366085817   -0.21903131289046    1.30064830072118
O           1.42806472193390   -1.53822069983715   -0.07077312614260
H           1.27268020227042   -0.16146491986990    0.01096448144020
H           0.53424865428643   -1.94697054613822   -0.05674762699966
H           1.72943187931848   -1.60627557316310   -1.01665717078595
N           1.22201226955536    2.69651242365911    2.55024484086153
H           0.67929343277787    1.85921330178905    2.74352036141229
H           2.17809846932185    2.42480039107015    2.36351102348110
H           0.42258455189997    3.01551282354821    1.22958852903321
H           1.20347300814486    3.30491502416017    3.35796150618455
