    26
        -50.46972954  Gyration_radius:  2.43069003026 Dipole_moment: 5.139
 S           1.44394426820059    0.35995284204058   -0.50208439142323
O           2.00202112300688    0.33575888683089   -1.82858149402490
O           0.74392345277101    1.62734964765468   -0.21013958832577
O           0.28467297023954   -0.72424606644218   -0.54444223509630
O           2.33807262765111   -0.00921556948586    0.56936946620922
O           1.64622465369612   -2.02505541149017    2.14222804458208
H           2.18723135893189   -2.78723758939994    1.93472429802869
H           1.98974900751966   -1.29049404955207    1.58665115958619
O          -2.77817351086683   -0.39816451553374    0.11816022081583
H          -2.18458513265696   -0.48230778944517    0.88577466572569
H          -2.87927528594415   -1.28604763690485   -0.23025005840750
O           0.65462661033164    1.39919463224327    2.41676271376189
H           0.70861886120571    1.66390099466503    1.47525499512991
H           1.52951446455441    1.05610907939280    2.62080542496545
O          -0.06951316455716   -0.05570165618052   -3.33419428670025
H          -0.16023831434726   -1.00963943339252   -3.28631698602814
H          -1.04195269095509    0.75214678438623   -2.34274624434053
H           0.78964390914235    0.13658277443877   -2.87300316754640
O          -0.70679797724393   -0.77969599448073    1.86992403706847
H          -0.33579260793691    0.07592131396200    2.21079782863678
H          -0.09060120097824   -0.78204524837389    0.37588535564441
H          -0.07791686885316   -1.45110625567457    2.18952055579960
N          -1.43876602319495    1.30005804964698   -1.52578101951663
H          -2.03655854621997    0.68204251629168   -0.92944720797902
H          -1.94634094888950    2.12215569339102   -1.83502560401221
H          -0.57173103460173    1.56978400144106   -0.95384648257450
