    26
        -50.46742640  Gyration_radius:  2.40235611311 Dipole_moment: 4.783
 S           0.32592195835908   -1.47733524652199   -0.82321228485570
O          -0.56409979401849   -2.50923496036568   -0.34968550557381
O           1.13985698120514   -1.83550919582603   -1.98225248184415
O          -0.53980912301510   -0.28429293086377   -1.38162990591203
O           1.15112878428660   -0.92505454857401    0.25092918734881
O          -0.33216826967569    2.13469835944099    1.40339595599472
H          -0.34555658196318    2.86627128564200    2.02130738216272
O           1.72258168016579    1.52221485930105   -0.38244722613308
H           1.66558180937765    0.59698189948257   -0.03954976954392
H           0.98068121199460    1.96927096389735    0.05918994163351
O          -1.87137184955618   -1.72718200883481    1.75606606201803
H          -2.52054599440876   -2.40153093217936    1.96182262179678
H          -1.34768218222922   -2.08291102369865    0.99040327244788
O          -2.27299015194269    0.53727750129699    0.31635163441889
H          -1.72438250797155    1.23486921620551    0.71900367219660
H          -1.27001263435416   -0.00023580181524   -0.74489811674763
H          -2.28524842170296   -0.20999229034800    0.94515190072064
O           0.22794751576156   -0.12285076386209    2.60845223124139
H          -0.56640693848584   -0.67387708459027    2.65338970208106
H           0.72782380260557   -0.49728336183109    1.85496124335790
H          -0.07150077435954    1.32799126650253    1.93226249003646
N           1.57018949996591    0.53290858898433   -2.78602817956226
H           0.72540788055916    0.81007028162947   -3.27791140633372
H           2.39778930900115    0.67417433928096   -3.35679900363695
H           1.63020509562015    1.06904122565803   -1.85039797898722
H           1.44665967478050   -0.52847963800973   -2.49787544832285
