    26
        -50.45444078  Gyration_radius:  2.55477011729 Dipole_moment: 4.687
 S           0.54990066585268    0.53072369864059   -1.19415869747361
O          -0.01861532379518   -0.88452895371954   -1.16674657340857
O           1.17103675815234    0.61993493480188   -2.59390513338231
O          -0.53467271617712    1.48033068298315   -1.08090197284598
O           1.57658371199746    0.68593183213988   -0.20365373355400
O          -0.63306839051522    0.53374903922589    2.65089922282881
H          -1.24727367212145    0.79813383430897    3.33731509428294
O           1.80084788246139   -0.77282275221444    2.10153440959141
H           1.89840123061456   -0.28976081054229    1.26412553241102
H           1.07618822215070   -0.33005830618729    2.56511281321764
O           0.61211919725997   -3.08038440302315    1.52807056817372
H           1.17242766412808   -2.32509682153948    1.83122857218916
H           1.02388139497638   -3.41266543906998    0.72889126328463
O           0.14035561055224    2.61359884004373    1.23878194142257
H          -0.25332615906320    2.36876687919408    0.37971982823916
H          -0.37850730712490    1.36197212880069    2.16435060135615
H           1.07975069946386    2.43541211079568    1.12497387069903
O          -1.29699113016587   -1.39767341388165    0.88394709282072
H          -1.13309265421329   -0.67551676365812    1.53013395741594
H          -0.62235223668635   -1.08726837227439   -0.28989232660166
H          -0.73312455812556   -2.15622267044758    1.19468680914862
N          -1.14352167232710    0.58545860657316   -3.69470401542196
H           0.35587893186884    0.59028725366787   -3.21158426027691
H          -1.47362778803849    1.05807780755316   -2.85766040567578
H          -1.45005711319149    1.09469902271439   -4.51312525313575
H          -1.53914125793103   -0.34507795486719   -3.71743924530963
