    26
        -50.45879061  Gyration_radius:  2.45001918183 Dipole_moment: 6.738
 S           1.44510861047769    0.65228661727581    0.27787004935868
O           0.20046366078193    1.32117202246869   -0.19078157435784
O           2.57146088610668    1.07148348468658   -0.52128832251962
O           1.58497913349121    0.74613405783954    1.70429891170001
O           1.23866043537763   -0.86401571385806   -0.11235657155087
O          -2.22925915612027   -0.32569608208037    2.30132385108359
H          -2.55599204957451   -0.47769202341005    3.18909893794275
O           2.50758810866437   -0.51568966959280   -2.55460298437754
H           2.70011296864004    0.14161455072545   -1.83153560944895
H           2.58270176588193   -1.36983562682755   -2.12090302630663
O          -1.84942979106056   -0.43345124384549   -0.55842195211569
H          -2.44819358347013   -0.49769246692611    0.19200574898959
H          -1.18728558704422    0.22577983958056   -0.28314892118509
O          -0.71938947743274    1.81743617707802    2.36785221530352
H          -0.81580411572510    2.25381284264991    1.51549917114149
H          -1.69629657142305    0.51504660293185    2.35285617764828
H           0.18431468291843    1.43304703610859    2.32387710264392
O          -0.45171643557668   -2.12045090448933    1.40053834838153
H          -0.96468659526960   -2.52452687545623    0.69547034492819
H           0.65986330376436   -1.31687330574856    0.56216811009713
H          -1.05708442140158   -1.46457534427190    1.81740995259192
N           0.04483505254966    0.34276562575684   -2.54389126081285
H           0.13198222958378    0.90718246975621   -1.62005026914324
H           1.01323181834071   -0.10568431953077   -2.67834748617184
H          -0.68292432904577   -0.35098247375068   -2.35977413296998
H          -0.20724054343328    0.93940468295614   -3.32516678083962
