    26
        -50.46742636  Gyration_radius:  2.40236654544 Dipole_moment: 4.783
 S           0.08195844220132    1.38966045253994   -1.01423717847368
O          -0.77583452518568    2.55594320558059   -1.20947556111468
O           1.13209604603436    1.22397856739507   -1.98941194925233
O           0.58813322944386    1.33029697990821    0.35689295203330
O          -0.93842777670268    0.19796564814233   -1.16708753429133
O           0.04485548505813   -1.97141589989201    1.65790533701764
H           0.16356764481111   -2.61524284094263    2.35690986877144
O           2.60088951773165   -0.84939359791286   -1.44299530448070
H           2.10040462314510   -0.01657501989575   -1.65025217816853
H           3.20797292538835   -0.97574251108129   -2.17374752933020
O          -1.32980010548300    0.44842526247489    1.86040646092516
H          -0.53560096059052    0.86683687097851    1.44682692070773
H          -1.12544375357159   -0.50141713379565    1.82368441735037
O           0.21503327734048   -2.08732151342701   -1.07297380338005
H           0.11279727203323   -2.23352577364157   -0.11489624000166
H          -0.48427358551795   -0.70314124200203   -1.19962040222041
H           1.14585807924477   -1.83142803915475   -1.22147261078740
O           2.21469399480035   -0.55051919923967    1.28999236980155
H           0.89557945313121   -1.44928471894834    1.61259382005508
H           2.63650654470275   -0.80944336024922    0.45832057467807
H           1.73701757089962    0.27256218764235    1.06155128837209
N          -2.77777002202382    1.67032984633864    0.07449038061743
H          -3.24735398609293    1.03227578786769   -0.56175359012573
H          -1.94803898079564    2.13984649044276   -0.48760681279059
H          -3.41854864871902    2.36321865500469    0.44861507240102
H          -2.29627175128334    1.10311087585727    0.85734125168104
