    26
        -50.45879055  Gyration_radius:  2.44994575431 Dipole_moment: 6.739
 S          -1.59366900344925    0.14950036515377   -0.15959794232971
O          -0.89097223237062   -1.19150064021139    0.28927968664647
O          -0.51586784476725    0.91248364909925   -0.84677115888497
O          -2.59169985787004   -0.27682824335575   -1.11100970421567
O          -2.05964348928687    0.83990061414662    1.01062315780238
O           1.67404239291053    1.59201950694276    2.24298936358779
H           1.82713082497977    1.99506384432227    3.09864095628966
O           1.97395569353763    0.03877118859241   -0.17319417814232
H           2.38972322759522    0.54745909252140    0.52976806160440
H           1.10979577818080    0.46885841111539   -0.30366974013280
O          -1.64649546071675   -2.48919820275091   -2.04362438297336
H          -1.57151363116691   -3.00843918012976   -1.23860468575246
H          -2.16745212072898   -1.68660134605616   -1.76725571277047
O          -0.35339156392862    2.83254933250177    1.13493120240352
H          -0.20069507603136    2.82440345706688    0.18477756037065
H          -1.07993638165148    2.18085419227988    1.25273192124885
H           0.92868447879587    2.11121854968684    1.83261725678911
O           0.71588825280864   -0.91162335039433    2.30495922621714
H           1.46234695040690   -1.38606965846225    1.92921053540813
H           1.00573189004018    0.02860994822978    2.35502043744043
H          -0.36790189181552   -1.04158389874671    1.12542243850087
N           0.41396333827384   -0.92162957256504   -2.35981815572525
H          -0.33681208550288   -1.68870380138372   -2.29053033998341
H           1.24932146628307   -1.14425596523512   -1.81447630657393
H           0.65127689119066   -0.71112259527716   -3.32381411909377
H          -0.02581053572595   -0.06413570707992   -1.85860538768845
