    26
        -50.45656474  Gyration_radius:  2.59884551469 Dipole_moment: 7.464
 S          -0.01773456741402    1.00645653271191   -0.20450149369466
O           0.61621802231294   -0.35616908572259    0.23760077994431
O          -1.03330614426064    0.75163965532573   -1.20546909611358
O          -0.58665212897835    1.51376420163004    1.06371189562019
O           1.06118473900682    1.85104759956364   -0.66727593577589
O          -1.95736996041896   -2.95219447037195   -0.22022429116399
H          -1.98888094401490   -3.52445612493297    0.54718979495692
O          -0.72275619469225   -0.76671143549849   -3.37009363548295
H          -1.61543574778604   -1.03727895306971   -3.59489442498092
H          -0.81735989661246   -0.06815453560485   -2.69206018292911
O           2.98076806773907    2.62124562710692    0.87508315714736
H           2.34975482366902    2.33552364961422    0.15953953529311
H           2.94500200170233    3.57954694114885    0.87740119395909
O           0.35171712750811   -2.23154764253358   -1.40237291015927
H           0.07883996486548   -1.80388413026371   -2.24468289714232
H           0.55034349323912   -1.11006993066926   -0.47873305772540
H          -0.46576638881352   -2.63409328557773   -1.03627475500537
O          -2.54996663653114   -0.43885963324645    0.58989862489810
H          -2.19969946086571    0.08808768025398    1.31418430993286
H          -2.17970204328642    0.00294711397202   -0.19791035419042
H          -2.25398164097266   -2.06813713573729    0.08155809733237
N           1.51157293322196    1.04374360656778    2.36412910827062
H           0.53021332122708    1.32778334046188    1.91629422145455
H           2.21559720534031    1.72137280340570    1.94822798483064
H           1.51844382539648    1.02916011004277    3.37849159650654
H           1.67895619940464    0.11923752140176    1.96118275421681
