    26
        -50.45656486  Gyration_radius:  2.59894726483 Dipole_moment: 7.469
 S           0.47962341729379   -0.26732287738540   -0.86854257691533
O           1.04406304010843    0.58893431949008   -1.88822759218296
O          -0.72531966466930   -0.95644005145147   -1.28265421060719
O           1.49947093550448   -1.18871891996853   -0.32055421235210
O           0.15082173301457    0.63730735579454    0.36746983085328
O          -2.65594808558745   -0.94291413866439    2.15564324384227
H          -2.48226973898917   -0.95279713077865    3.09751063592049
O          -3.09835789140939    0.18089565949675   -1.68612473857690
H          -3.72383279345483   -0.53687518281108   -1.56689378688058
H          -2.21478099044925   -0.23701809976771   -1.72183927498061
O           3.25601980392427    1.87410280681427   -1.55321466465595
H           3.84541938783848    1.56327708386893   -2.24285245756348
H           2.36170502123213    1.50067153177128   -1.78239454474852
O          -0.71323061213908   -2.37841789643231    0.93523323851863
H          -0.86818352375107   -2.00827411389800    0.04534914610486
H           0.24412858965450   -2.33942518495556    1.01844974369768
H          -1.99034394778312   -1.53391451998310    1.74536465404056
O          -2.26674004208181    1.24024939451625    0.62878723814148
H          -0.84775407967000    0.92834162227421    0.42996872992744
H          -2.68472128305436    1.02009402865224   -0.23354973166699
H          -2.53367071682441    0.51994053248617    1.24052631317646
N           2.82440460492757    0.66872622311105    0.73257919753993
H           3.19185613107428    1.21247285480125   -0.10235356480179
H           3.53166849601810    0.48666793024132    1.43672218028506
H           2.01804725827257    1.16947334514901    1.11227575880898
H           2.35792496125771   -0.24903657239280    0.30332145517306
