    26
        -50.46229083  Gyration_radius:  2.39798171931 Dipole_moment: 2.217
 S           0.16834353385666    0.04412503068563   -1.57885002996872
O          -0.45412666135685   -0.65939077867063   -2.79573457277166
O           0.88244666910719   -0.99196277963327   -0.80788055625789
O           1.06477593596291    1.08826226134395   -2.02535638609676
O          -0.92061414933846    0.59401302136991   -0.76513023993081
O          -0.11160648693650    0.23910473766882    2.57205854853581
H          -0.77910281951517   -0.34939954020061    2.15605013049899
O           2.18062675633678    2.17761304637994    0.02262849615401
H           3.02410918485950    2.54355081369985   -0.24991777023110
H           1.75124286351205    1.83074274608165   -0.81106522384940
O          -1.96810094273674   -0.96179251495624    1.00636668560837
H          -2.82723084063900   -0.58524310484468    1.20775480589281
H          -1.58368920233722   -0.38612938681412    0.29344933072300
O          -0.43090217170652    2.40937770380172    1.12833361219174
H           0.44112800701403    2.74254091001003    0.88758781022020
H          -0.72388384648077    1.88333834560391    0.35662005957886
H          -0.31350757265575    1.14646582664442    2.21892909148627
O           1.94755852372191   -0.10663112654724    1.23285172972008
H           1.54023245570808   -0.57480381665409    0.36874838830366
H           2.16083712726953    0.81920074031818    0.90309669910241
H           1.09235621041437   -0.00656439446935    1.90466896151722
N          -1.30410992678024   -2.67040688628174   -1.40842229978481
H          -1.82070443599437   -3.47123575245729   -1.74879540900435
H          -0.87661799255276   -1.47897623898252   -2.36367791844733
H          -1.76263002986223   -2.30946037129120   -0.57674045375410
H          -0.37683017885782   -2.96633848183524   -1.12757350944623
