    26
        -50.46229091  Gyration_radius:  2.3979768953 Dipole_moment: 2.216
 S           0.85275186873245    0.17966561976923   -1.32797014489902
O          -0.15714542893413    1.19732524932597   -0.97835622773427
O           0.67861001972833   -0.12129964305602   -2.82543955900768
O           2.19633434896113    0.65549289708999   -1.07968672327408
O           0.58174085495719   -1.05316183423423   -0.58163280575236
O          -1.08510111503011   -0.25166330339767    2.33322928566423
H          -1.56729862113104   -0.65531510138695    1.57857762632770
O           2.43277836991340    1.26015345721113    1.41118472626279
H           2.42319300978657    1.00274586662456    0.44503889963613
H           3.11945906170540    1.92384460901319    1.49860427975554
O          -1.87011000778523   -1.52010880003633    0.07173025883154
H          -1.91680282758924   -2.46158569707014    0.25037109196966
H          -0.93613377030161   -1.34878401739841   -0.22102909302334
O          -0.09997527722078    1.82730127006351    1.40555123149089
H           0.88431215197452    1.70442558686748    1.57130393506202
H          -0.18754914845684    1.63468329392729    0.36305618298558
H          -0.60109848387908    0.97656216420006    1.87255171902269
O           1.30115453617319   -1.28852546612626    1.97712338109116
H           1.15537643758496   -1.35585895880443    1.01152225540023
H           1.95395004818579   -0.58711378162415    2.08330578476509
H          -0.22942860978337   -0.75498357467142    2.39005448231534
N          -1.90129718721308   -0.23217351738516   -2.67309770436434
H          -0.33087099805409   -0.23440898172089   -2.89503020338848
H          -2.54948629173049   -0.41859680474378   -3.42756843331301
H          -2.14684489677411   -0.81066869531745   -1.87485835965845
H          -2.00051803381560    0.73204814288087   -2.37853589614865
