    26
        -50.45879056  Gyration_radius:  2.44997173084 Dipole_moment: 6.739
 S           1.15916316539949    0.68585947526575    0.87957872578830
O           0.41484169814542    1.25111948140649   -0.27915716062835
O           2.57441471417277    0.92833325281345    0.73353598850097
O           0.55629576134326    1.06786973184521    2.12609308892637
O           1.01563358071620   -0.87699671496957    0.70494864310374
O          -3.11338934671114    0.16508990622757    0.80495406353624
H          -3.86209334262146    0.19836583966294    1.40190621136282
O           3.38800631475365   -1.03899546213495   -0.72442740608376
H           3.13497902524158   -1.78736540144495   -0.17742087161884
H           3.25349059101968   -0.24921196401582   -0.13276308541145
O          -1.33695834845271   -0.52941187737398   -1.36370490298068
H          -2.23920817860089   -0.43460185203931   -1.04322569652924
H          -0.84100042384607    0.16804939333206   -0.89854912531360
O          -1.62325773470815    2.26870813803011    1.28636622301607
H          -0.87480669153231    1.87735078164341    1.78947308731109
H          -1.21938756839724    2.52235079644575    0.45046802504125
H          -2.59224313350415    0.99576790008125    0.98349791223994
O          -1.34065240610034   -1.78744032007590    1.29016384390545
H          -1.99565633823569   -1.05610577347953    1.20876180040883
H          -1.46083766252875   -2.32269500863504    0.50120340815090
H           0.12574265931399   -1.17938759251140    1.03941279395674
N           1.38180010699464   -0.18482165086013   -2.15559279272876
H           1.63489887597299    0.24190312287285   -3.04089895259152
H           2.22509490859078   -0.65587574590893   -1.68248987826779
H           1.04401370190252    0.55518848053207   -1.43574825095935
H           0.59111607165833   -0.82304692681492   -2.26638569216605
