    26
        -50.45656456  Gyration_radius:  2.5976251865 Dipole_moment: 7.472
 S          -1.02144264515695   -0.06014878552042    0.11722336420042
O           0.40016099512981   -0.52027911723622   -0.35383362974724
O          -1.46058033325238    0.79843931364223   -1.00484031906941
O          -1.84337828980053   -1.24569945100421    0.21976865181322
O          -0.89210979367772    0.67317462747336    1.35962201924042
O           2.82860421569294    1.91220046426043    0.95441750694310
H           3.45521510152791    2.15247181634140    0.27104216903194
O           0.47212907200554   -0.13908616279316    3.49638525287544
H           0.68304536461334    0.67361884678740    3.96074725800120
H          -0.17686911515289    0.10697466824951    2.80718472235962
O          -2.38847016869924   -2.73330969546497   -1.81597438248309
H          -3.34450543506654   -2.73161688064511   -1.89138958437805
H          -2.19204123976218   -2.29592057975094   -0.94291454744931
O           0.35840805974393    2.62616085981445    0.10893621778611
H           1.95695835172289    2.25224564081732    0.66255428807036
H          -0.09675525770133    2.45642532468346   -0.72115159444990
H          -0.12340232337539    2.05797045207979    0.73965090963896
O           2.13062970028065   -0.63981773329221    1.45418809098741
H           1.62792220900477   -0.60130246838861    2.29838582025744
H           1.09273215174890   -0.62281919127411    0.41761769195650
H           2.52129292690006    0.25400477589651    1.34122046911161
N          -0.78825834986364   -0.88141944951029   -2.74916326625513
H          -0.70050400704646   -0.62820363204561   -3.72764159137988
H           0.11226003368847   -1.11670407562981   -2.32630244243930
H          -1.15475987280126   -0.05707943363896   -2.09381555490435
H          -1.45628133075805   -1.69028011388140   -2.58191750967574
