    26
        -50.45879037  Gyration_radius:  2.44999470585 Dipole_moment: 6.737
 S           1.02150157261279    1.11085742531836    0.55554257641925
O           1.40647896711797   -0.41206283893680    0.39465603123181
O          -0.14417514634583    1.28927302112775   -0.35304506963075
O           0.66034907354622    1.35308981175399    1.92451521094920
O           2.16948848375646    1.82058074407510    0.04425977739505
O          -2.65339835454164   -0.86762178660936    1.60469427736962
H          -3.18516693370041   -1.05198379120528    2.38009551222576
O           3.23278508876905    0.15533096360459   -1.61522942565419
H           3.41104690835608   -0.59007496653586   -1.03568811601483
H           2.98047521016716    0.89142743846064   -0.99360462341532
O          -1.36121378066184   -1.06661727220599   -0.97184690122256
H          -2.12639694493022   -1.26641959766719   -0.42387085517721
H          -1.04480399819592   -0.20708303095442   -0.64029112210884
O          -1.94041406504084    1.65375882482787    1.71613616908593
H          -1.88029372909024    1.96721369804236    0.80825976684233
H          -2.43527345311265    0.10362959262581    1.65509113112803
H          -1.00009419895939    1.58667550788102    1.99494484886238
O          -0.24193939300163   -2.03929778177977    1.55941550604593
H           0.79804898221055   -0.97973536779176    0.94509741296972
H          -1.11127668879332   -1.58951189438750    1.67099361779831
H          -0.36134069782044   -2.63760460373734    0.81696339377542
N           0.76098190331448    0.14372193723794   -2.44727540496885
H           0.24988952291702   -0.73705501023702   -2.35921186788698
H           0.61148183649869    0.56425700368651   -3.35870442104107
H           0.37589524815931    0.77101377995900   -1.64833693529047
H           1.80736459845823    0.03423818525175   -2.22356046941029
