    26
        -50.45656482  Gyration_radius:  2.59898480312 Dipole_moment: 7.465
 S           0.80964400605145   -0.02281794945594    0.63165826699620
O           0.90438395907649   -0.59469070348219    1.95662787100796
O          -0.70882056683934    0.01065476210903    0.24795867881563
O           1.16191492928472    1.41421894740161    0.64398256992607
O           1.53557644140304   -0.76332001392980   -0.37975395307966
O          -0.90655343207038   -0.20738227068075   -3.42491169816570
H          -1.53083528679224    0.43696070799105   -3.76029019441499
O           0.85962032511583   -3.15746667866270   -1.32759899138999
H           1.23358828368381   -2.37114867351908   -0.88204733152247
H           1.27305490533162   -3.19064481138380   -2.19281267568172
O          -0.15345237559934    0.51982012700603    4.02922703668575
H           0.23119436533874   -0.05065436722980    3.30921357265689
H           0.57211637579583    0.69113457562118    4.63240438822162
O          -1.44755089689687   -1.79759068546937   -1.32074108597992
H          -1.34919384056716   -1.30904355247687   -2.16689731798064
H          -0.72107179050051   -2.46017875780863   -1.31467336845639
H          -1.01390264252539   -0.78089919184388   -0.35722667001591
O           1.06879210160599    1.13205077522249   -2.14913160443133
H           1.03083656562541    1.82187404347052   -1.48004723717406
H           1.39536178134126    0.36131282976972   -1.64692077296709
H          -0.16254936152617    0.30213734438929   -3.04083656791962
N          -0.84706592822304    2.04526415345138    2.01521772442435
H          -1.15796458206201    3.00768282827814    2.09459897988932
H           0.09310532118985    1.91401225035477    1.42954787153204
H          -0.65897245403165    1.58512080868705    2.95365118134564
H          -1.51125620321944    1.46359352220565    1.49980132770546
