    26
        -50.45656487  Gyration_radius:  2.59907347961 Dipole_moment: 7.468
 S           0.95469087340519    0.03385023913593   -0.37825547908979
O           0.57818634460241   -0.99186904744862   -1.32918243415044
O           1.70270047717021   -0.51087869627851    0.77637003210044
O           1.65228331925367    1.15370228650271   -0.97060830600703
O          -0.33883081716662    0.59939375938314    0.30081680195712
O          -2.84505072588479   -2.10181053728228    0.28275550899653
H          -3.27060121358419   -2.16182618398696    1.13873677584714
O           2.58688779728584    3.10684263087852    0.43266359815340
H           2.21128647111451    2.46349850961308   -0.22829117315468
H           3.53149845965913    3.11814432160230    0.26760176325331
O          -1.31103751577436   -0.75994873018616   -3.19058078315748
H          -1.57218428420371   -1.66534330447655   -3.37135868965087
H          -0.50018601916597   -0.81858477188606   -2.64679975592580
O          -2.45779866078427    0.24062165924375   -0.98680797172793
H          -2.17224662056082   -0.01057326798764   -1.89351737816228
H          -2.74901160147585   -0.59595221887822   -0.56291075873624
H          -1.20253434335273    0.49536849771420   -0.27277208700264
O          -0.20238853421001   -2.56923783422845    0.63135256605085
H           0.42558731657428   -2.19327614636866    1.25529360455629
H          -1.90820163419698   -2.35443832086481    0.42108491071457
H           0.07519528567511   -2.17644269811192   -0.21809365620053
N           1.36567949336856    1.56007018820375    2.15916083994754
H           1.61449848459727    0.59444816953735    1.65927645905393
H           1.92576285901577    2.29707247172923    1.63866346106956
H           0.37810203707092    1.68217623740008    1.92476328846982
H           1.52771275158992    1.56499277701930    3.16063886281645
