    26
        -50.46066640  Gyration_radius:  2.40229849246 Dipole_moment: 5.231
 S           0.33205465722808   -0.30583906137949   -1.64017955134773
O           1.13466222446947    0.68958294392168   -0.72450146516861
O           0.07282882091777    0.46522146142833   -2.84767231298776
O           1.11020885700514   -1.50395234327100   -1.80142843327343
O          -0.93146833881362   -0.55865426924902   -0.91635671632501
O          -0.16413459178849    0.47390353833251    2.51825013007573
H          -0.51157586360976    1.17132817625431    1.95161146179481
O           1.26416118735690   -2.83444727944343    0.44862227449351
H           1.15802721343305   -2.40616728755767   -0.43613533302435
H           1.86274205637278   -3.57066339415283    0.31257745636536
O          -0.34932054290063    2.59573590174430    0.39973121844784
H           0.19154769666641    3.29245447765337    0.77552390595015
H           0.27420685276693    1.93739394956177    0.01931118427479
O           2.03254200796537   -0.39700983262638    1.33504994667708
H           1.58489485631722    0.20761890970999    0.09355977711259
H           1.32446192755379   -0.06859557256316    1.94641492785521
H           1.85116417691609   -1.34755723674015    1.19171910993263
O          -1.15837435363887   -1.77408896517564    1.46345590415903
H          -0.65572952425627   -0.34602941650993    2.28163468029889
H          -1.21071740338713   -1.39792225880264    0.56545038092342
H          -0.43674125536565   -2.41261302840457    1.40887366501399
N          -1.80354418984461    1.67091561573428   -1.67809672678531
H          -2.69622601674845    1.91699490570286   -2.09071015645650
H          -1.77853084293887    0.71195406349176   -1.20052743591943
H          -1.02828050122659    1.42966315379439   -2.38953240023237
H          -1.46885910047381    2.36077282854278   -0.98664548184307
