    26
        -50.45879047  Gyration_radius:  2.44999374776 Dipole_moment: 6.733
 S           0.97302938693935    0.36466353100627    1.22685399424570
O           0.88485570059621   -1.07802645613560    0.59060091607919
O           2.38803876076407    0.58425647813585    1.40751233972352
O           0.44107368325345    1.26303619616031    0.16565574335706
O           0.15096472606733    0.40043116969428    2.40413363640237
O          -3.20936114343568    0.04833305064389    0.26127454465177
H          -4.05251752006770   -0.06084194700529    0.70309995766891
O           3.47778943668749   -0.91916928827446   -0.38384237714929
H           3.22795737488844   -0.32458516869636    0.37516678535079
H           3.14204716074817   -1.78180165128082   -0.12613602728117
O          -1.06474778168561   -0.06995998010267   -1.66998927635099
H          -2.01077388193111   -0.03569979804265   -1.49788317204987
H          -0.66888188558703    0.44836170719622   -0.94644821375036
O          -1.85842391122329    1.87381932069897    1.57352776226968
H          -2.74030700509784    0.77492056927641    0.75655543097577
H          -1.20692255098022    1.32764646172708    2.06707955907219
H          -1.31521276147058    2.33788932308608    0.92877285359432
O          -1.52496133899406   -2.02790988799954    0.47033404778808
H          -1.49524525302642   -2.31165788399384   -0.44734638255910
H          -0.04600428427194   -1.42922518215011    0.66399875452605
H          -2.16475221162329   -1.27901612890579    0.48874752628341
N           1.74792830461798    0.37878170262128   -1.84155774099518
H           2.14924931267371    1.02781017150009   -2.51061263071921
H           2.49962797984095   -0.23795810490737   -1.38144944921963
H           1.27668663435007    0.89806905399765   -1.01214312904781
H           0.99886306795795   -0.17216728825459   -2.26590546285141
