    26
        -50.46195501  Gyration_radius:  2.47304615552 Dipole_moment: 4.185
 S           0.48614300995224   -0.41843410438262    0.71129548968897
O           0.38021752743862   -0.09830362805014   -0.72782647448295
O          -0.84338233092333   -0.52680649855425    1.28729007313303
O           1.11733958450128   -1.83179623871864    0.79455103397735
O           1.34572658694448    0.52546617499388    1.39427059505809
O           2.83083423722133    0.02381076714423   -1.76501683306417
H           2.78660031199997   -0.44906632259530   -2.59747011300640
H           1.91172554567095    0.08333663472653   -1.43238670604673
O          -1.96410190281262    0.37657720678929   -1.47546651293687
H          -0.95877422689219    0.23560477935342   -1.30860213418128
H          -2.35641026477487   -0.56754083091358   -1.15656717440409
O           0.13866652712261    2.79945710913988    0.76785016450635
H           0.64512703295373    1.98517152553375    0.97211033357389
H           0.45435822642645    3.46910185879428    1.37734182238212
O          -2.25040459140772    1.64286175541331    0.66047580503624
H          -1.50727605407418    2.28525551786236    0.66765200991963
H          -2.20911135606125    1.02483625591460   -0.68084629748099
H          -1.88439236899511    0.86810190932558    1.13548784824334
O           3.50026481176689   -0.91271334287968    0.66217632580034
H           3.52402957387361   -0.60545133979883   -0.26735544069205
H           3.13486838232071   -0.16531781140318    1.15895048600457
H           2.10511500823340   -1.65355972859912    0.74973785614691
N          -2.60235104596781   -1.82710904641014   -0.41104078688529
H          -2.27622221085434   -2.68225246320155   -0.84170723710523
H          -3.53256697605596   -1.98272528119880   -0.04483959106322
H          -1.97602303760505   -1.59850487828807    0.36993545787669
