    26
        -50.45656473  Gyration_radius:  2.59882522973 Dipole_moment: 7.466
 S           0.07275096009712   -0.31442471842376   -0.97530542678481
O          -0.58529601884397   -1.43346506450911   -1.61269487015086
O          -0.14113893628590   -0.46819207657080    0.56895992830219
O           1.54345026931742   -0.41813015942627   -1.10010859049431
O          -0.42990851149149    0.97772419675411   -1.39487177337898
O          -0.07431605826397    2.91747215557190    2.01922734327198
H           0.46990436485667    2.92775059043736    2.80734548623508
O          -2.81714180964419    1.98158732262611   -0.77803197580103
H          -2.01647278108141    1.57759751000846   -1.16843845115837
H          -2.69897265450442    2.93030650274494   -0.85919742770972
O           0.13050362488428   -3.87896721906167   -1.20751285563603
H          -0.29449244082833   -2.99704108994024   -1.39020795102404
H           0.37969840258527   -4.22359139320827   -2.06702031867501
O           1.49253155770903    2.19317312498560   -0.06521809794477
H           0.52895817311767    2.73380545099689    1.26892527228160
H           2.10302752315712    1.45719270087517   -0.16808985476771
H           0.75500117815760    1.94657102521034   -0.65531482241202
O          -1.91307455487449    1.00813997890057    1.54732018903146
H          -1.34363946837337    1.75821700332749    1.82560535179376
H          -2.42793212324052    1.34102668616100    0.77859167648684
H          -0.92042136115462    0.10816780190061    0.95148118198646
N           1.67157045427817   -2.45687023900812    0.36340211804545
H           2.54972156878313   -2.77464666768502    0.75971432546832
H           1.76702872793133   -1.57872082692360   -0.31771888335598
H           1.17380400259466   -3.20098129425765   -0.20778693802776
H           1.02485591113433   -2.11370130144400    1.07694539441480
