    26
        -50.45396369  Gyration_radius:  2.615587812 Dipole_moment: 3.037
 S          -0.29799438492416   -0.65002513239094   -0.52897811568415
O           0.69295323407840   -0.66392071853162   -1.56616576429592
O           0.42176038216959   -0.49757721296103    0.81178056327613
O          -1.16240333340350    0.60922388195565   -0.65858113010611
O          -1.16981714114582   -1.79651700588080   -0.46821628714752
O          -0.93607559311179   -3.50161692174380    1.63322704485194
H          -0.18356551316916   -4.08119579506772    1.50767944741647
H          -1.08782603727362   -3.05149554989856    0.78293534322940
O           2.85379023439545    0.40975819523405   -0.30285143069698
H           2.60022009424099    0.16230532475166    0.59002224284168
H           2.21676664367532   -0.05045347889437   -0.87442700702468
O          -3.14581744837428   -0.57092326049218    0.91964993614478
H          -3.10972344919135    0.30659879706722    0.53024184128921
H          -2.65997559578165   -1.14553757470025    0.30398740758256
O           0.07910211570366    1.88500386050430   -2.37360511352681
H           0.53820218760181    1.09961222776436   -2.69720556880513
H          -0.70141110250439    1.23330101611795   -1.38159262945947
H           0.78171751134095    2.42213534962174   -1.87217842252256
O          -1.17375440212951   -1.02721867423195    2.63482971646120
H          -0.23853953122526   -0.67930699357230    1.63605565021194
H          -2.03551949519413   -0.79755045514866    2.21106342749557
H          -1.12291076809749   -2.00435443254993    2.58428982436793
N           1.99295507257200    3.04052899053537   -1.00695330902584
H           2.65509257287005    3.59931904261047   -1.52943286736732
H           2.46987147893395    2.18737205702097   -0.70204036748355
H           1.72290226793732    3.56253445287486   -0.18353442203059
