    26
        -50.45569030  Gyration_radius:  2.49448453257 Dipole_moment: 4.708
 S           0.67591117822544    0.77753337932477   -0.41950686395978
O           1.92144010915941    0.57204744711977   -1.16665065576412
O           0.99803404070860    1.44754552937914    0.92150476735841
O          -0.21466979437037    1.67225870060955   -1.15925039349378
O           0.01438033273457   -0.50337300434555   -0.16461935017327
O          -1.73462752223930   -0.19102040016667    2.73222869728072
H          -2.34492185440070    0.12203737432833    3.40184232953100
O           0.77323122122871   -2.45135281987827    1.45477819750185
H           0.52194717632553   -1.79086357101813    0.77545923987417
H          -0.05746458752851   -2.78771640885099    1.79900099718144
O          -0.37731337594367   -1.71750538764883   -2.46019405522277
H           0.12762279760197   -2.52890469569728   -2.37499668847086
H          -0.35596268789795   -1.29976101267224   -1.56386995747733
O           0.94509554119121   -0.16031920014097    2.85343870088095
H          -0.03107017292191   -0.16894264758462    2.97094185055645
H           1.14337583379090   -1.04149139524956    2.47042667180829
H           1.04703168507040    0.78075234561617    1.72174364247317
O          -1.81886624239718    1.85344602768398    0.96870518970555
H          -1.81723626539892    0.43329847871030    1.97855574649021
H          -1.29419255681234    2.50484860287504    1.44151213277511
H          -1.35945048274316    1.74365907810339    0.11521719926804
N           0.65063805707374    0.55034733860235   -3.33122479599225
H           0.01113199281440    1.21417361668707   -2.84620403117878
H           1.43999438067298    0.53338932070472   -2.57576853416390
H           0.20913538507846   -0.40379482658643   -3.28024678044138
H           0.92680581109982    0.83970811004111   -4.26282325629280
