    26
        -50.45656489  Gyration_radius:  2.59917031127 Dipole_moment: 7.469
 S           0.96453046848564    0.16402537888386   -0.31412660833952
O           1.97246440797033   -0.80589360927593   -0.68145887068029
O           1.22463464894567    0.83218612335876    0.94452279169074
O           0.71142014472340    1.11531829007547   -1.41887230795205
O          -0.39967248205975   -0.59954008032373   -0.21379962667399
O          -2.48783360566425    1.22141475844889    2.21583253691280
H          -3.37630377672404    1.32654427914201    1.87375167416029
O           1.90881880874820   -2.09747054141352   -2.91415847518614
H           2.01066040286945   -1.73039056378457   -1.99401031085427
H           2.72327729106527   -1.87381912697098   -3.36839724910107
O           1.06695382521598   -0.28632056046680    3.35533223948866
H           1.30677570497623    0.10525198718694    2.49173378671509
H           0.91316553370404    0.45409156864342    3.94588615427996
O          -1.15784278615691   -1.11737226162348    2.11717249470019
H          -0.36733826886850   -0.97915653227210    2.68525207446770
H          -1.72739757556494   -0.33132506147798    2.26584379799203
H          -0.67285470706468   -0.85983865776542    0.75748100397206
O          -0.78925083462867    2.47815714323188    0.52504442915907
H          -1.90302215091055    1.75150075731001    1.63474391028425
H           0.01312481152837    2.02003288398078    0.84020076125058
H          -0.70171577059976    2.42737464372105   -0.43138739286063
N          -0.27575453714387   -0.65105414615702   -2.90880354219436
H          -0.84553944712494   -1.09186738674787   -2.18337377864875
H           0.15708841040342    0.22719061888160   -2.37451260334092
H           0.54911778433446   -1.28656025122892   -3.11719793557157
H          -0.81750632045336   -0.41247966333708   -3.73269896367530
