    26
        -50.45569028  Gyration_radius:  2.49480268402 Dipole_moment: 4.706
 S          -0.47960292466794   -0.40600410000465   -0.91821126392540
O           0.16637340495237   -1.11481022380162   -2.02825106521570
O           0.52314880170188    0.08351682487906    0.02948229040163
O          -1.28319956470525    0.70520406772699   -1.42846924843375
O          -1.42597628928611   -1.36761526054614   -0.18979303075835
O          -0.93366146861130    0.16943612415047    3.10118385735311
H          -1.53726526906320    0.35863482841955    3.82140181418351
O           2.23753671505957    1.59309001975790   -1.26633583369956
H           3.07386219556151    1.13821414312612   -1.14712193891542
H           1.59548394389711    1.11960517038544   -0.68154489821146
O           2.04081377465197   -1.31087295259747    1.68662705044271
H           2.09682030317698   -0.74645014085844    2.46125027456176
H           1.56459671609797   -0.77930924666597    1.01469854172279
O          -2.36941191217809    1.04586086849374    0.98785628856692
H          -3.01294529021119    0.33608196287997    0.91543863020003
H          -1.32267528658677    0.59260610866511    2.30474460228499
H          -1.93460346446170    1.07036831530627    0.11497863480282
O          -0.47387034248550   -2.22107527358187    1.97466464056718
H          -0.68927440072642   -1.42964222511769    2.51701543714520
H          -1.01691370310664   -1.78266671568556    0.67506334261290
H           0.50071705073084   -2.17709915923984    1.87149230015863
N           0.55365495443562    1.05724594208410   -3.22505708325424
H           0.59929420127623    1.26647991842703   -4.21603916009511
H          -0.33117738174455    1.35421622325521   -2.76276422212878
H           0.50845769307839   -0.00088872793961   -2.95543948991140
H           1.34981754322143    1.44587352850271   -2.65687048047251
