    26
        -50.46066642  Gyration_radius:  2.40215512827 Dipole_moment: 5.229
 S           1.00853270959850    0.35450034595843   -1.32448044812857
O           0.93767738088699   -0.01948420881509   -2.72981771547226
O           0.95907140387409   -1.02274759426027   -0.56669850897935
O           2.19035562425877    1.06021066234116   -0.90941451729761
O          -0.22732476321051    1.05810265046645   -0.92188924192273
O          -1.25536178808199   -0.71228777473375    2.12525119382972
H          -1.60899987919577   -1.07656632468664    1.30637639409596
O           1.99714403035704    1.81877720202725    1.58945361173985
H           2.07091201318809    1.62468048149841    0.62281948262818
H           2.83778341012364    2.20288781246969    1.84367985224962
O          -1.44872863209224   -2.16060882799762   -0.49892522682556
H          -0.52644261146751   -1.81961156603881   -0.48563356998865
H          -1.40020618423601   -3.07769224914440   -0.22356580408375
O          -0.83519037707586    1.86834069534235    1.56101496729785
H          -1.26605211435508    0.26691003981515    2.02047538632864
H           0.04074733814232    2.09920985895965    1.89396767829566
H          -0.69054213385466    1.69800288327466    0.61192552113328
O           1.37463738504929   -0.79692690802409    1.88339812197557
H           0.42313570868899   -0.84533152044477    2.15796861448270
H           1.22272986397911   -0.93274475143760    0.44694329322533
H           1.64196269807466    0.13854583024410    1.98591015241932
N          -1.54730432461696   -0.36741662814281   -2.51464599150239
H          -1.78907398684817   -1.22707224495312   -1.99632870380140
H          -2.24320856707962   -0.10480140597287   -3.20339044677765
H          -1.33033493116358    0.38698917617471   -1.78513710073135
H          -0.53591926294170   -0.41386563398964   -2.88925698417037
