    26
        -50.45569020  Gyration_radius:  2.49554609177 Dipole_moment: 4.711
 S          -0.37470233184532    0.28793515207005   -1.00714075403214
O           0.46711495698720   -0.25071770842406    0.06268240007508
O           0.38890297623071    0.39871595273108   -2.25464562283828
O          -1.54878825084700   -0.56201740207406   -1.20803772014510
O          -0.87279015401294    1.67879713982236   -0.59690566394124
O          -0.70354665606653    1.00222349156693    3.00503277286889
H          -1.27912427886693    1.23787149555386    3.73445754447701
O           2.48924756297633    0.90951119677837    1.31082180749197
H           2.40631174703356    0.58758565315494    2.21154500159396
H           1.81140067916794    0.42051141459652    0.79867646468718
O           1.45085258026600   -2.55526413456857   -0.72334165886981
H           2.39920826961172   -2.40991810469201   -0.71620130591378
H           1.05836284570034   -1.74786189565766   -0.30799128805872
O           0.46887797498932    2.68469925001994    1.27584085040029
H           1.35846063065777    2.27565304245337    1.21382988082023
H          -0.28443022316904    2.13677205086108    0.13248202008007
H           0.03464861082861    2.19397529988753    2.00902382313583
O          -2.50573186593652    0.16487618884092    1.17645751520897
H          -2.17195098338561   -0.24478076202036    0.35639592961033
H          -1.27408280953475    0.54943095404355    2.34611390978662
H          -2.86370605184421    1.01047131747676    0.89365855825075
N          -0.09041751733260   -2.00579305971374   -2.79251299964729
H           0.56401969190505   -2.48285171365983   -2.12031131590383
H          -0.98469156422310   -1.83526069766782   -2.28620534079714
H           0.25349699031030   -0.96930642252086   -2.82894727605255
H          -0.19694283958631   -2.47525769887943   -3.68477753229901
