    26
        -50.45656489  Gyration_radius:  2.59920198005 Dipole_moment: 7.471
 S           0.10679546425491   -1.00066392026120    0.20713847152528
O           0.66682504742327   -2.04125043185596   -0.62654308762198
O          -0.09354778751449    0.26198294352125   -0.69815454213970
O          -1.28096723979468   -1.32481117123610    0.60538414854770
O           0.93910496699644   -0.64332919649030    1.33754889223723
O           0.14815102515255    3.21752366618662    1.48862588557710
H          -0.55895249186548    3.83234746023814    1.29002329774332
O           3.25229034522178    0.66836239608786    1.20735929918090
H           3.34129106363771    1.06954017805405    2.07439916483586
H           2.50835314055489    0.03747777510132    1.27946408892425
O          -0.58977571172137   -3.02338894306520   -2.65475570983976
H           0.03092875371935   -2.68174389923884   -1.95489424614484
H          -0.68587114824932   -3.96023194526082   -2.47355539621943
O           1.63977773282751    2.05014541933039   -0.42478722698747
H           1.17626188144316    2.60535197076943    0.23946798595858
H           2.38030223326209    1.62345911611381    0.06138245379754
H           0.66624246012263    0.97039193504079   -0.61687580647166
O          -0.97246169466036    0.89219668800636    2.30151237199799
H          -0.17634474677012    0.34715201665124    2.15294998674331
H          -0.27775532566849    2.41543967850325    1.85729263172924
H          -1.67112998593429    0.35993620333547    1.90967045477888
N          -2.15543498982910   -1.13100388118641   -1.74246167296126
H          -1.69013213448901   -1.94196200976492   -2.24612284910953
H          -3.14802259033867   -1.05314678954101   -1.93735557987933
H          -1.90988735037673   -1.27477542591792   -0.66395077948912
H          -1.64604091739722   -0.27499983310531   -1.97276225668873
