    26
        -50.46195501  Gyration_radius:  2.47313081548 Dipole_moment: 4.187
 S           0.04158999751718   -0.57676839475494    0.76349460216245
O          -0.24270835695393   -0.40849191702585   -0.67722121353323
O          -1.17404677154434   -0.50863363548642    1.54699715758546
O           0.66717152519343   -1.98649834189678    0.91904671296131
O           1.06073542477112    0.37355511603538    1.17505763061778
O           0.91631121049919    1.56394269820443   -1.70025103860887
H           1.90199887380757    1.24135765939520   -1.43318058130404
H           0.36029626648853    0.74706512148623   -1.41403654031129
O          -2.06095202074150   -2.21124230354308   -1.41218356203412
H          -1.75066232839225   -2.57158643611983   -2.24430094712907
H          -1.46134264784899   -1.46888091037389   -1.19235024807577
O          -2.09367770834167    1.85690728265956    0.78633634785956
H          -1.81589872308188    0.95364969745870    1.04762617149243
H          -2.74700107899411    2.13165666845134    1.43227896941136
O           0.35191126748106    2.81478046021065    0.38886769951050
H           0.66848314576247    2.25037208553067   -0.93924814742181
H          -0.61936396508742    2.70524684951305    0.48707899376693
H           0.71730430957234    2.06478858518677    0.90252807624601
O          -1.61925422062559   -3.12137897519510    1.07636087145823
H          -1.88413287386081   -2.30547594056472    1.52696104593164
H          -1.93852471624259   -3.01246507247625    0.15699901358250
H          -0.13032944487858   -2.59301868785569    0.99389713157194
N           3.05765964428937    0.63577963101543   -0.72570883663474
H           3.82617500395794    1.24393137293862   -0.47441160979482
H           3.43414048998311   -0.21800659211400   -1.11610548182599
H           2.53411767726926    0.39941397932124    0.12546777251694
