    26
        -50.45879055  Gyration_radius:  2.45003433617 Dipole_moment: 6.737
 S           1.57244718069046    0.10054468456212    0.33071926839075
O           0.98786163315696    0.18572606332040   -1.13388732259435
O           1.80652580085697    1.43360176275732    0.81171579425797
O           0.50142691105045   -0.57802569641492    1.11076268096461
O           2.72230686104355   -0.76207973856991    0.20158401256064
O          -2.11674012382437    2.23893270142076    0.93659054902741
H          -2.42199695894891    3.12354120751145    1.14224469435298
O           2.17060230738455   -2.21631462211851   -1.85730288932309
H           2.05909301396929   -1.54073225016479   -2.53146166744166
H           2.55411828088753   -1.72374961144892   -1.08130124136408
O          -1.92688004045085   -0.44378051932586   -0.11473444707702
H          -1.11196616203946   -0.36608125246893    0.41310231989286
H          -2.48317864118758    0.27610921203555    0.19843440955613
O          -0.13486427215363    1.68591596628288    2.56254471930070
H           0.64655457909057    1.78193277055281    1.97384901912499
H          -1.39538432496978    2.04480923947628    1.59646605002611
H          -0.16884945990138    0.73929512369840    2.73264098787635
O          -0.87429349174650    1.96690563587767   -1.42414727455027
H          -1.28125522735039    2.15065428038988   -0.54603462968817
H           0.35277947958376    0.95150289196941   -1.20700269101725
H          -1.50538282604421    1.40537953811172   -1.88233647405517
N          -0.00820123734762   -2.52669602189734   -0.45780405250230
H          -0.14884749854298   -3.45782633304726   -0.07950050334804
H          -0.87135198097523   -2.15919606811441   -0.86362604852358
H           0.26035090402557   -1.81509109563810    0.31777405947712
H           0.81512529374323   -2.49527788874637   -1.14928933334404
