    26
        -50.46218817  Gyration_radius:  2.39344155934 Dipole_moment: 7.372
 S           0.49936302624755    0.76388527843807   -1.22664648314386
O          -0.09857631431692    1.07666028282845   -2.52880123539045
O           1.74234732347586    1.42659453105216   -0.96319426204748
O          -0.47920709126248    0.97457253480870   -0.14639461214473
O           0.70536444369617   -0.78507623549673   -1.29780916774923
O          -0.82976221810277   -0.37114981079932    2.61484225934477
H          -1.62851036490209   -0.17664446448984    2.11808683059848
O           2.75038302297050    0.51589782936098    1.36045713099938
H           2.18366492101931    1.07436813018597    1.91448787449334
H           2.61606773866746    0.86223645317975    0.45827259556266
O          -1.95793185438962   -1.13611383739604   -0.20291966468557
H          -1.45808765805792   -0.28111120151568   -0.10477872438414
H          -1.40886660969359   -1.80358247270380    0.21987352828281
O           0.50530328453920    2.01275467244328    2.07050295015107
H           0.59119703671582    2.96454397979849    2.00630397818346
H           0.16826262088024    1.70818320012882    1.19701683621931
H          -0.37266277453090    0.47603341043120    2.72512102396991
O           1.09802455429547   -1.51590475635664    1.08366008265725
H           1.86411069305306   -0.92087754871963    1.28344319128539
H           0.38777398932714   -1.20767739226144    1.68739681989264
H           0.90665771271346   -1.12432905776967   -0.34980521181124
N          -1.58563307829503   -0.93099372506795   -2.80883308313095
H          -0.99797356404500   -1.67984093414863   -3.16356644233299
H          -2.40465154990460   -0.79556477477952   -3.39287766333688
H          -1.84604124597805   -1.12837813507070   -1.79531167307105
H          -0.95061605413822    0.00151406393262   -2.75852687839948
