    26
        -50.46195501  Gyration_radius:  2.47312666807 Dipole_moment: 4.187
 S           0.70330324983296    0.48558837639587    0.43228687164644
O           0.32383911003429    1.86048452107920    0.68120280741645
O          -0.46131915635068   -0.41758307158783    0.54515478105942
O           1.36008718390918    0.27903669859903   -0.84721615035657
O           1.70945993932380    0.03189266696658    1.52072443705975
O          -1.59774075071483   -0.06317711084079    2.92822279686633
H          -1.78557843734967   -0.94181025540606    3.26179045060846
H          -1.28648836424826   -0.17857956134181    2.00693904367862
O          -1.58881841835562    2.15697515447978   -1.12820706785851
H          -1.73031455109761    3.09830639917288   -1.24410884709364
H          -0.92827541832873    2.06766416816996   -0.40917159133747
O          -0.95279660405178   -1.68174309214802   -1.56215730754188
H          -0.88926203409563   -1.21559948202863   -0.64726024210786
H           0.01360422711250   -2.13918662250714   -1.62366217756828
O           0.58581132691437    1.44946823242756    3.32857831421926
H           0.41281992268462    2.06495500503000    2.60046519519550
H          -0.25442577764816    0.96020252210367    3.44538681555156
H           1.40036654428634    0.51495066165704    2.34570559347881
O          -0.44622933100850    0.43276906514657   -2.79495280926679
H          -0.87476403706613   -0.85563632719945   -2.21268607039541
H          -1.02794380633966    1.10618914192241   -2.37886704468339
H           0.38387339634814    0.50097447096291   -2.27907862341122
N           1.47135921178644   -2.40223205723611   -1.53117149851795
H           1.72078014060049   -1.45021223855897   -1.23806118828602
H           1.96552504109837   -2.61699308693645   -2.38749735877515
H           1.77312739271934   -3.04670415832348   -0.81235915957366
