    26
        -50.46218822  Gyration_radius:  2.39350056218 Dipole_moment: 7.378
 S          -1.52790271246840    0.08345983194345   -0.02023295721590
O          -2.02098244444918    0.96499122644485    0.99627596893525
O          -2.56507701794330   -0.65857371354771   -0.74458713274234
O          -0.81835450143312    0.89336276017990   -1.15490739811454
O          -0.50173403091313   -0.83771626943570    0.49691044707359
O           2.52005354690696   -0.46841926811103    1.04574619209560
H           2.24626607496884   -1.30296345167619    0.65692504956476
O           0.03599965725905    2.37421407767979    2.00984955700401
H           0.34091505163840    1.66018706190872    2.59043834394151
H          -0.83092842616452    2.06415956785204    1.68705121766823
O           0.99374029454499   -1.33939589440190   -1.54191667938160
H           0.47587481445312   -1.22283750871021   -0.69999537296330
H           1.53162654249695   -0.54581589297013   -1.62355746707133
O           0.44248207262429   -0.24315076247776    2.88751324461612
H          -0.13595501156865   -0.55715605987876    3.58335313875322
H           0.00061454827709   -0.47341134120560    2.03829462608608
H           2.02822128228428   -0.38832322655510    1.87678403356368
O           1.36153625425157    1.67344549758311   -0.15509252877717
H           1.88042039621942    0.93249029974449    0.22656556034950
H           0.06243110330744    1.26430172960956   -0.77963259538565
H           0.98865391513502    2.14249850075692    0.63345061410930
N          -1.30051989442828   -1.22074240361354   -2.84339023244081
H          -1.35035718262084   -0.40021976755512   -3.44020036321847
H          -1.60810857505108   -2.05421233883765   -3.33424034867941
H          -0.31309596797815   -1.32528526189549   -2.45868199080247
H          -1.93581979937702   -1.01488739283442   -1.93272292696281
