    26
        -50.46218820  Gyration_radius:  2.39344426114 Dipole_moment: 7.373
 S          -0.03247231851766   -0.04986374519575   -1.52851215163166
O          -1.38881286861895   -0.41043168270332   -0.83787472580755
O          -0.43323620773617    0.91553289480363   -2.55728232329094
O           0.76884012903004    0.61202685220536   -0.48511175488232
O           0.60736171695547   -1.22971028614016   -2.03054433760223
O           1.11973509598784    0.03053281020462    2.53217142493355
H           1.05743501384983    0.95215985210644    2.26890695839266
O           1.02745477605973   -2.93596897858621    0.00833934617941
H           0.84601823717422   -2.51951431909469   -0.85508873360470
H           1.82191343622517   -2.48112743375649    0.32743243571618
O          -0.97299515435423    1.78830986598777    1.00755007484296
H          -1.33819517218589    1.06916224601349    1.53215683031420
H          -0.22256101228313    1.38580182852212    0.49240814355626
O          -0.75653964821767   -1.52427272764394    1.33461582806193
H          -0.18436050233144   -2.23962152016535    0.95799140598272
H          -0.14009353292672   -0.97596035606590    1.86683468378508
H          -1.17994059653185   -0.90223373887130    0.03887363264037
O           2.77932098017379   -0.81149417101635    0.45938910916691
H           2.07305639390136   -0.28649546815727    0.01783375166126
H           1.87210425214235   -0.33526252907138    2.04325654208492
H           3.54639144169797   -0.76106299684782   -0.11199788912401
N          -2.20660169258202    2.17327816067609   -1.29509147492985
H          -2.36412953000463    3.13115973979080   -1.59149287108586
H          -3.05643443878574    1.62076371113465   -1.36171109777162
H          -1.42265072103521    1.66421333517362   -1.92893146248329
H          -1.82060805710650    2.12007867669233   -0.30412137509503
