    26
        -50.46218820  Gyration_radius:  2.39352579923 Dipole_moment: 7.378
 S          -0.27220620072183    0.31099209504348   -1.47251082463645
O           0.58322824225606    0.73757921962919   -2.58481349228506
O           0.21345888849925   -1.15010896346182   -1.19640381608148
O           0.05679731709113    1.06511309919530   -0.25103760911840
O          -1.67696981660748    0.33081171960976   -1.75494395815342
O          -0.12792297383224    0.32544796049352    2.74608166386146
H           0.64451602911996    0.82281446078209    2.46595892516629
O           2.17088840445303   -0.09133711381296    0.66433156345480
H           1.36920983041286    0.43148888346025    0.39130519945425
H           1.82747427045457   -0.89336695071885    1.06998884494906
O          -3.01062469622826   -0.70988659991894    0.33864827071991
H          -2.97061978866794    0.10192600388256    0.86708497365380
H          -2.70448635140370   -0.43312718841232   -0.54541217202005
O          -2.00984157528209    1.73090159010867    1.24782213120967
H          -0.89474030968588    0.86346292294391    2.49836401404139
H          -1.28036370380823    1.53625910670803    0.61585075358742
H          -2.44402952990848    2.51915842500015    0.91988318979035
O          -0.70219916851127   -1.73884838220340    1.07851027435917
H          -0.45922286857325   -1.07408226930087    1.75889798468583
H          -1.65782277826889   -1.55871557035785    0.89088539838241
H          -0.16892931309207   -1.44790059204297   -0.29128504669967
N           2.74598322482249   -0.34598524102248   -1.90004716297392
H           2.69329662280313   -1.31463206091587   -2.20147303313763
H           3.59095305211283    0.10167163962203   -2.24044166063577
H           1.81757663067862    0.17555661110858   -2.27588125263046
H           2.66659657188774   -0.29519280543626   -0.83936316893386
