    26
        -50.46218802  Gyration_radius:  2.39318043117 Dipole_moment: 7.360
 S          -0.21463508096363   -0.80799081129296   -1.28058246692125
O          -1.27213370666938   -1.76328959884550   -1.13032972980745
O           0.52805544748682   -0.90853327828697   -2.54122130843659
O          -0.78892478477711    0.64635040855814   -1.32633070371372
O           0.71046132411023   -0.82268376655531   -0.13484953564229
O           0.54191548534916    0.44176004416846    2.68028399686020
H           1.39464662744608    0.46673153726356    2.23892575656403
O           1.62918997521729    1.58366459626330   -0.02505516029712
H           1.34833183164270    0.62965662329865    0.01269102837330
H           0.90766510215197    2.07894750586760    0.37476618491717
O          -2.62384401118557   -1.22171172957355    1.13362424470014
H          -1.97718394142055   -1.65180722351116    1.71393573295066
H          -2.34971719038236   -1.48618784367451    0.23544324761316
O          -0.13623039060238   -2.16621180930495    1.97218086738756
H           0.29751321390672   -0.49432715161216    2.73335367510127
H           0.01518374493091   -3.10698302456273    1.87490254715903
H           0.17417622020859   -1.75030029849139    1.13549766143684
O          -1.49931680295384    1.15761980077079    1.03909062723977
H          -0.77749238722261    1.00196909816435    1.68610778122894
H          -1.12629373244649    0.88589820295670   -0.38682844711988
H          -2.10988135160017    0.38789385051542    1.16420346225971
N           1.48921619008014    1.41162474175343   -2.65615044499633
H           0.75808278329616    2.00876739526776   -3.03143174751634
H           2.35174763396534    1.50763650219102   -3.18247951596727
H           1.62708066379063    1.62060586478423   -1.62118688508931
H           1.10238715665923    0.35090036387193   -2.67856088827688
