    26
        -50.45895650  Gyration_radius:  2.39178528866 Dipole_moment: 7.107
 S           1.06603141428502   -0.87075096439325   -0.78580429890146
O           0.31109925186696    0.36311701885697   -1.09816569609114
O           0.09737812761630   -1.74597836396025    0.08016751401817
O           1.32880149830135   -1.65312746795829   -1.96304811027938
O           2.22185664991733   -0.53253650876527    0.02535173322573
O          -0.81296574811362    2.23862313609848    0.87093664772065
H          -0.81248366076226    2.94891387285002    1.51526000303197
O           1.64066597455368   -0.06197954617731    2.62018461125914
H           1.96298358637429    0.84300747841146    2.64032754534931
H           1.95687867175073   -0.41859733539961    1.76767247180930
O          -1.15933229121984   -2.16230598090669   -2.60574156116539
H          -1.14918155179697   -2.08947707669332   -3.56223663034765
H          -0.21249238127619   -2.07848225135253   -2.32809064260914
O           1.85262992953864    2.08110946792844    0.42792126889616
H           0.12112478432167    2.14829375743015    0.57106671407808
H           2.02516425445385    1.12910441091305    0.25822745630911
H           2.03885005752908    2.51632955695848   -0.40549603569591
O          -0.92754760664145   -0.22720984208882    1.89053314451062
H          -0.27156055300934   -1.20410340123014    0.83792118387560
H          -0.10823143640649   -0.22383387312215    2.42950173986630
H          -0.97884558493588    0.68543003930599    1.52376637984382
N          -2.09103418599538   -0.33171084635079   -0.93370108595116
H          -1.96661002878830   -1.14851526891353   -1.58722309826612
H          -2.81742374740755    0.31155305669261   -1.22910506449023
H          -2.23907470469012   -0.64453007946538    0.02467281806316
H          -1.07668070957642    0.12765702122663   -0.98489899815995
