    26
        -50.46195505  Gyration_radius:  2.47321815019 Dipole_moment: 4.188
 S          -0.69684143468153    0.00766982878277    0.65720527463033
O          -1.52770804101045   -1.15999518726732    1.24805659095431
O           0.55736971900852   -0.59157166622097    0.15464344754121
O          -1.46565313106888    0.53811760891280   -0.45577148705134
O          -0.43143098492680    0.97587933274573    1.70053764662165
O           1.90683938095507   -1.61635437776187    2.21033636677365
H           1.50971306943465   -1.18486241924954    1.42612655680285
H           2.21719946665942   -2.47472927606308    1.91808401532684
O           0.93952904292126   -0.20419369804482   -2.29158922383080
H           0.92993501646575   -0.41472314513580   -1.28458346309443
H           0.02272783852677   -0.66193241485714   -2.60261350028115
O           1.23218967681688    2.59834867807605    0.42775960282381
H           1.26388096642035    3.42039132902920    0.92051871325034
H           0.66667422452777    1.99026038048674    0.94907110474225
O           0.09273673269859    2.11859507045165   -1.92332421059777
H           0.64626524705411    2.46985559614011   -1.19167333279855
H           0.70881934291161    0.82461348705100   -2.28234801437313
H          -0.67861479267701    1.73294906704258   -1.45846752873781
O          -0.35968572471964   -1.00830496307162    3.51807028670188
H          -0.32928575470455   -0.05844269695320    3.32893834397520
H          -1.17964152660856   -1.24740681527686    2.18654275197851
H           0.53275645723179   -1.33689571415053    3.28451162266657
N          -1.38286042318039   -1.13528784320903   -2.66086812176217
H          -1.53888513054030   -2.12080350281075   -2.49502681226788
H          -1.94342051682498   -0.84687011177621   -3.45219618015468
H          -1.69260872068622   -0.61430657686221   -1.83194043983836
