    26
        -50.46259453  Gyration_radius:  2.4218669393 Dipole_moment: 8.963
 S           1.16285792067206   -1.14097718444208   -1.00697214727783
O           1.32469583651576   -2.49399946580280   -1.43357611931442
O           2.31197976063467   -0.26489131895939   -1.13362420290673
O          -0.03138364682884   -0.50628628224719   -1.63758513396640
O           0.85323940662877   -1.11653739416502    0.54269260001453
O          -1.76276218328167    1.03522504497697    1.42018985044246
H          -2.36618850179805    1.34850307560366    2.09499459658204
O           2.06384046506649    1.94150107725356    0.11457383371982
H           2.19826963530687    1.04680047190664   -0.33498790994675
H           2.87932213677482    2.42242107394568   -0.03366661676970
O          -1.42976105189197   -2.75177786958968   -1.59703624576295
H          -1.03738091803080   -1.89310384212928   -1.84032142186894
H          -0.66836163982294   -3.34372056758843   -1.60552208001887
O           0.71064443443333    0.93412511120679    2.32008863569531
H           1.26625779975365    1.47888912553979    1.73998349600153
H          -0.87193711317157    0.95679956868396    1.85977772468666
H           0.90319882494014    0.02862934991469    2.03265492116394
O          -1.56670860341035   -1.86511089103421    0.89161096894094
H          -1.72314132800002   -2.27939477670530    0.00804674437555
H          -0.05626326018948   -1.51854479473234    0.70465532175381
H          -1.97553110134655   -0.99064502103968    0.88500574297207
N          -0.45275803105809    1.83577816112585   -0.80230972057917
H          -1.10024923169891    1.70042904855624   -0.00119917159852
H          -0.28280606429761    0.82666175146045   -1.23118943000965
H          -0.83126649390202    2.47046859728584   -1.49550202795951
H           0.48219295800363    2.13875794097524   -0.46078221837054
