    26
        -50.45491453  Gyration_radius:  2.43184372295 Dipole_moment: 6.963
 S           0.05270107928023   -0.63205262284167   -1.83548741429158
O           0.36285644922459   -1.17478376054127   -3.10988193915083
O           0.13141940009358    0.86066338120087   -1.80492817249416
O          -1.45700131369525   -0.92274270877687   -1.49361337933513
O           0.82810716335059   -1.17093017842613   -0.72011354685224
O          -0.21582569200126    0.88138915289294    2.19329670670792
H          -0.06248950225496    1.30404789190961    3.03855096260917
O           2.20488722732518    2.23907425442497   -0.85955567813841
H           2.95002433216901    2.19076486575242   -1.46022821168636
H           1.46536888539243    1.77678285283989   -1.30677693790162
O          -0.09541487940996   -3.32000207038887    0.52249958216312
H           0.40124287037922   -2.61277603154853    0.05798611255396
H          -0.30360902900378   -3.97861074433210   -0.14164027828243
O           2.01544113092712    0.36170602406922    1.08287954028828
H           2.23543235192602    1.13288234690470    0.52336468156755
H           0.70557771497558    0.66394800706023    1.81267458633681
H           1.70439231512872   -0.31815549574792    0.44813587000980
O          -1.68084146905221   -1.24369335296468    1.07956867022945
H          -1.12484390566305   -0.66256625528056    1.62108855971325
H          -1.52445059968789   -1.08634574162737   -0.51380043160627
H          -1.23309155543936   -2.11580167765292    1.09193933293109
N          -1.49654423208529    1.58620736624986   -0.03180048336763
H          -1.01922578532600    1.43484677653667    0.89475018085913
H          -2.29145091265265    0.95315002416916   -0.10192682074816
H          -1.78636718043073    2.55248879700527   -0.14354414087057
H          -0.76629487347069    1.30050887911373   -0.84343737124574
