    26
        -50.46195499  Gyration_radius:  2.47318204664 Dipole_moment: 4.188
 S          -0.75394729864822    0.00767800506868    0.59059908172450
O          -0.52016697661390   -0.81343118811594    1.75997520294966
O          -2.27160482739790    0.02137528661388    0.27538079459140
O          -0.35543844376126    1.39502692099794    0.75679846195863
O          -0.09032389848440   -0.56109588807905   -0.60141758497959
O           1.59798825794016    0.97654761175988   -1.63373283944822
H           0.90619722943274    1.77744661759605   -1.79786384639466
H           0.96375653243549    0.23627050329042   -1.30488972761912
O          -0.89805006084783   -3.07985780364153   -0.91682614750617
H          -0.49226498695987   -2.19515128577235   -0.80917539551720
H          -1.08291451183587   -3.18011317149716   -1.85188747791297
O           2.12884919663828   -0.85803013715305    1.78443287966474
H           2.40262487994724   -1.14077997444048    2.65888117928537
H           1.14997548020279   -0.91297705469600    1.77481305751955
O           2.29965659877568    1.55802651376823    0.69374337713859
H           2.49241092954948    0.69260770317524    1.11675689453053
H           2.07482180812465    1.24545386763553   -0.73260763926110
H           1.35620483242721    1.71027177519949    0.90954305824130
O          -2.58387422285366   -2.39301820396277    1.05859717354324
H          -1.89455697292241   -2.17015049518855    1.70208588431441
H          -2.57558703284305   -0.90118557040098    0.53224399841859
H          -2.11375221637156   -2.87553529371519    0.34782214033957
N          -0.22385863614296    2.73051605169224   -1.66572644142954
H          -0.51162144740232    2.40749225315891   -0.73442494394422
H          -1.00120522759900    2.60613103157556   -2.30082631840667
H          -0.00331899478808    3.71648192512981   -1.61229482180149
