    26
        -50.46218805  Gyration_radius:  2.39323577003 Dipole_moment: 7.364
 S          -0.59608308412655    0.06824635509732   -1.40433488068185
O          -2.00877222526704   -0.17179180708055   -1.38652854586724
O           0.18987365142825   -1.24843757407231   -1.09517348534371
O          -0.05905155325750    0.47423510288913   -2.70714784827621
O          -0.18377433608597    1.01918020778471   -0.35803919474150
O           0.33340694812348    0.66699206248319    2.66564251146002
H           0.93221817624914    1.23977014338073    2.17989244560088
O           2.24007814237135    0.34284221176652    0.20095440466827
H           1.31971253979924    0.69150910993013    0.05272308317628
H           2.13192393896209   -0.44117439911281    0.74807229885985
O          -2.71035505815209   -1.13140567599151    1.02866623927589
H          -2.63240044704927   -0.92824074787564    0.07765677302160
H          -2.72187045660244   -0.26093610862163    1.45533135666402
O          -2.02369652485663    1.53780135402560    1.46139691684218
H          -0.55262382052034    1.03611940655622    2.53357475753710
H          -1.40117242981208    1.38047753955317    0.71508644046533
H          -2.65152180580830    2.19162798539395    1.15172378773667
O          -0.15442759564069   -1.66768133898666    1.36778795032740
H           0.08557744824708   -0.88716555789180    1.91280950355883
H          -1.14481547045077   -1.67039874274626    1.36716831324254
H           0.04721514561349   -1.48018161669129   -0.10520858275965
N           2.35390622020973   -0.15666052822366   -2.38888804813607
H           1.29297972035357    0.15878406742005   -2.61079126744662
H           3.02433223349494    0.36830103519194   -2.94132376421081
H           2.46966417900240    0.02118420917506   -1.34525141669217
H           2.41967645378884   -1.15299670333036   -2.57579975824467
