    26
        -50.46218806  Gyration_radius:  2.39327554557 Dipole_moment: 7.363
 S           0.78871119704228   -0.66757717270966   -1.12489503708100
O           0.40551771909096   -1.24840858410518   -2.41584204968690
O           2.15185763801257   -0.89528382483749   -0.74601939298866
O           0.52343739970776    0.85976156020138   -1.33427133290153
O          -0.15404958940974   -1.08314900640105   -0.07258857724341
O          -1.08255027507128    0.29782807845132    2.53001602119000
H          -1.74721847238250   -0.17130056588959    2.01944221340554
O           2.67602230011116    0.46009339509340    1.51963170953059
H           2.26736130603247   -0.20062797696247    2.09963508188351
H           2.71524851566430    0.02031118683700    0.64966818719477
O          -2.19204254080597    0.46179851222959   -0.39463342117306
H          -1.46602804210642   -0.18880614009467   -0.19388161319397
H          -1.90133665952231    1.29568670144742   -0.01275146114831
O           0.51035713611715    1.85850393920737    0.98132887073421
H           0.54648485540829    1.31697121107111   -0.41521263338676
H          -0.11371840363687    1.39438252399847    1.58052242462248
H           1.40464724905156    1.54501436303520    1.26897820276884
O           0.94586263408737   -1.59531077533154    2.27098564037875
H          -0.39928089670616   -0.35597513755457    2.74070792897741
H           0.59276874122930   -1.47689429945677    1.35963214861031
H           1.32281944304973   -2.47535206364880    2.29848993837360
N          -1.59178869564649    0.18201941569560   -2.95026794602757
H          -2.28872607826772   -0.24023389028679   -3.55539187711623
H          -1.23154698129777    1.04513043848482   -3.34675671256425
H          -1.97084328905900    0.36699461236017   -1.97236530898487
H          -0.71196621067104   -0.50557650086661   -2.78416101414775
