    26
        -50.44930415  Gyration_radius:  2.54910509239 Dipole_moment: 3.610
 S           0.34595078641195    1.05101663243256   -1.26870530357846
O           0.88475645307120    1.80772505973885   -2.51238465203400
O           1.40891522751182    0.15965302859762   -0.79890064862494
O           0.06066558178015    2.08467884311939   -0.26340083931780
O          -0.84430635228027    0.31379990749489   -1.63871662924942
O          -2.05535276330176    0.87549732137853    2.40209270161639
H          -2.64306844452653    1.60082311403885    2.18201355625253
O           1.59213601040301   -0.60035400927118    1.60201645753595
H           2.52896423327166   -0.70733692839998    1.77652235244293
H           1.52508945269583   -0.35349764273869    0.62112338553104
O          -0.38482834084751   -2.54861187550385    1.47877957506886
H          -0.68120024933020   -2.69981243195160    2.37823036149395
H           0.37992680742498   -1.95207123317500    1.53129031139127
O           0.32578999470480    1.59041429075086    2.12299504193802
H           0.26196374288776    1.88990506058519    1.08272965796278
H          -0.67266877317771    1.31387838793167    2.33550602788581
H           0.85897052636718    0.73677176039209    2.08709682832487
O          -2.14773614020172   -0.73845868289936    0.41928723242273
H          -1.59515338962222   -1.50963671094023    0.64660225535258
H          -2.14233737802604    0.21192132467151    1.63698236941240
H          -1.74589974818529   -0.34416238754990   -0.38417350066356
N           0.98323803177667   -0.55219895244097   -3.61613160219729
H           1.01441531226425   -1.05461166247425   -4.49458377192940
H           1.02879367417650    1.06071311515393   -3.15109129286553
H           0.06410547686481   -0.66726284014551   -3.19864341746919
H           1.64887029787856   -0.96878249879705   -2.97653643671006
