    26
        -50.46259446  Gyration_radius:  2.42210533215 Dipole_moment: 8.963
 S           1.43541974225069   -0.76021265937072   -1.01411829611619
O           0.67304211507441   -1.58543724207113   -1.93158096696241
O           2.85358114408078   -0.92613524402949   -1.01340872691501
O           1.05047557464503    0.67199297436321   -1.17939259205600
O           0.86254642577149   -1.16349739854536    0.40275338048697
O          -1.48965370741120    1.09412942886039    1.66798244033788
H          -2.02942871711885    1.37970342521070    2.40604845735676
O           3.12215455061435    1.54176567603325    0.21752253311717
H           2.40827438830204    1.43593903768145   -0.43801184896813
H           3.68648552306930    0.77957177670611    0.04196428696103
O          -1.83404775667871   -1.57767716261150   -1.48139507081035
H          -2.22242956160743   -2.15849744283522   -2.13722183543669
H          -0.83689821005448   -1.63624704303101   -1.63266162160598
O           1.41526235797201    0.70613228410746    2.05769999641095
H           1.17245755729579   -0.49335674529342    1.08803435283532
H           2.11240112377558    1.16875926932967    1.53167131143407
H           0.59496526340990    1.20677507292526    1.96702082017475
O          -1.68261012334032   -1.50570192952181    1.29088281188392
H          -1.98277444778179   -1.65851818527348    0.38069289146688
H          -0.73157451785710   -1.68845028424225    1.24912965327247
H          -1.55996331864036    0.10051650097141    1.64131197257921
N          -1.44095066073875    1.03570831954385   -1.03212102105060
H          -1.60325153092363    1.23488759872831   -0.02540035154701
H          -1.83349755790648    0.10492797503358   -1.28138714225121
H          -1.79641528020983    1.77339416828585   -1.62885158693948
H          -0.34357038599173    0.91952781904461   -1.14716383765861
