    26
        -50.46259459  Gyration_radius:  2.42186403272 Dipole_moment: 8.962
 S           1.47159603619112   -0.23700225034703   -1.20196218829078
O           1.22955356263618   -1.60714683276464   -1.61208509023091
O           0.30339028671525    0.61623520503593   -1.56793949466502
O           1.42763291643272   -0.31409733046488    0.37607546368314
O           2.70393708384116    0.35734901263845   -1.61032742777322
O          -1.62772377774425    0.71136365827815    1.74341669821940
H          -2.13289789572614    0.93466504820315    2.52607180551901
O           1.62589744719192    2.86754515088950   -1.14231755013725
H           1.03589168235176    2.17631188197719   -1.49539870878920
H           2.50327982713972    2.50018885094522   -1.30190809018122
O          -0.73135401570797   -2.70880214070424   -0.41705877744693
H          -0.78324476268165   -3.60152081913484   -0.76150689229900
H           0.08410838972207   -2.30296499006630   -0.85431160970508
O           0.97410033088826    2.03364443151697    1.28233367380130
H           1.19671953879582    2.55207111870223    0.47093062182809
H           0.01255328969887    1.96835273270770    1.33727677371085
H           1.36555251343509    0.61902985873732    0.75073938120326
O          -0.30722314691869   -1.54434752843482    2.06766195109156
H          -1.10599759041393   -0.10571237487816    1.97409153458740
H          -0.57122104292268   -2.15425910862139    1.36037278932423
H           0.55703437394319   -1.21783298186043    1.77415085720001
N          -1.89043626086461   -0.31393556846236   -0.74158447595726
H          -1.69190852146531   -1.32911544867083   -0.62911234724099
H          -2.67964983267368   -0.14359501636044   -1.35374934904133
H          -2.01356468795308    0.13228987661854    0.18849743681897
H          -0.95602574391185    0.11128557451997   -1.16235699522889
