    26
        -50.46255577  Gyration_radius:  2.40941324244 Dipole_moment: 7.224
 S           1.14463975694044    1.40458745307869   -0.30624838476649
O           1.94096875010797    1.99004968682917   -1.33732507165319
O           1.34600796578356   -0.04447231824983   -0.14590345503779
O           1.24736997892941    2.05390555140575    1.00570171947593
O          -0.35805101019024    1.58383622939398   -0.75567534354223
O          -1.49699929758344   -0.82695838180657   -2.68282233242280
H          -1.65506902398339   -1.27671226288634   -3.51380156002141
O           1.30027737167958   -1.61671792915483    1.98400340972233
H           1.58457989904146   -1.09407798159225    1.20307813040740
H           0.69542368279385   -2.27600703456299    1.62969400156441
O          -0.76473791774831   -1.62626233715258   -0.24209985563590
H          -1.13932001035332   -1.52450049755514   -1.14185575410541
H           0.06711307498708   -1.10181805120393   -0.27976322999893
O           1.02407063008503    0.08306483925330   -2.94306482181467
H           1.30811283702976    0.91134060474614   -2.51213700001464
H           1.54030975170158   -0.59751971631431   -2.50299674883138
H          -0.65015175659888   -0.34037476088027   -2.80037808182468
O          -2.01041506641917    0.27165328769155    0.95731048453608
H          -2.88942877270040    0.37193384429262    0.58914088252427
H          -1.62259291597687   -0.56300064758024    0.53993902139259
H          -0.96153557972606    1.19249574375046   -0.09547480369588
N           0.05322883523778    0.60262555995113    2.70746901443193
H          -0.90499924303826    0.53546031560765    2.33876561303227
H           0.60421144691972    1.28037294506572    2.03086072356585
H           0.06852656242308    0.94503783382375    3.66146623227540
H           0.52846005041035   -0.33794198609752    2.61211721038668
