    26
        -50.45514715  Gyration_radius:  2.45714313043 Dipole_moment: 5.622
 S           0.79117544038659   -0.78015722485881   -1.62645198042646
O          -0.42124526981440   -0.85121222929713   -0.85618146243165
O           0.63150927824726   -0.57247920389036   -3.03149818072780
O           1.65995292692249    0.37371754273028   -1.05404749631032
O           1.63042456376072   -2.03467540239720   -1.37235494434005
O          -1.54371268183461    2.27159475077010   -0.20083010949553
H          -1.89250137393517    3.16198853129492   -0.26754712834175
O          -0.59957130392591   -0.70957621180893    2.42518237604299
H          -1.37674639731024   -0.59997218682835    1.80781510787844
H          -0.94163778201207   -0.58258091808308    3.31129901962838
O          -2.49418418336275   -0.21482530426255    0.68178411587716
H          -2.40764861414948    0.72962973340852    0.48177414926996
H          -1.96629241453143   -0.63883943466238   -0.01475512613635
O          -0.31729398663353    1.88808193833220   -2.54317225663735
H           0.55313274248761    2.28479090535525   -2.45317294894256
H          -0.14649477240889    0.98467985040358   -2.86615074864782
H          -1.18627259242635    2.04967908767797   -1.09281592453406
O           0.65485126919296    1.29119000769548    1.08609448808367
H          -0.12956200719067    1.73794856847188    0.71249414333011
H           0.29561203982258    0.54774442652447    1.61222337311691
H           1.28901984081396    0.72702520144062   -0.16411588077518
N           1.58435670137830   -2.22111129699082    1.17447514308932
H           1.62874263036816   -3.17172706829656    1.51737524679956
H           0.71720099767173   -1.79782935696727    1.50116259283345
H           2.35940531155615   -1.69825544470023    1.56171710341928
H           1.62777964299756   -2.17482929621575   -0.33030267117780
