    26
        -50.46255567  Gyration_radius:  2.40945027438 Dipole_moment: 7.219
 S          -1.46387664108906   -1.01856126649725   -0.44361019928887
O          -1.73266966053842    0.35290774867067    0.29039148079518
O          -1.64933568408205   -0.74703985203853   -1.87372577871089
O          -0.04974621621506   -1.33902316193598   -0.19151037805756
O          -2.38052657270584   -1.95794652381403    0.11967825877743
O          -0.05196008013563    0.74518588422453    3.09223701290250
H           0.10266583248743    0.65977857369291    4.03387551115265
O           1.48150019540693    0.50139994180467    0.91917386566634
H           0.94671953022789   -0.25253241041140    0.58147261673460
H           1.10231036457850    0.67053341189592    1.80667724275490
O           2.13552114028478   -0.98850247317625   -1.64482419477695
H           1.37645503870714   -1.38214594253311   -1.16245091838909
H           2.66146104910638   -0.55833184777533   -0.96335721913532
O           0.12364842175985    2.19253294233191   -0.45515903129799
H          -0.06376861511787    2.96988652822230    0.07297982983552
H           0.76212011653286    1.62869549821802    0.08863603657437
H          -1.12548581835985    1.04229487334186   -0.04025427503965
O          -1.07845421053108   -1.65039157092843    2.41445192846990
H          -0.30841235282086   -2.12747514546609    2.09384009704053
H          -0.57699685049686   -0.04620447632118    2.83579336463079
H          -1.72742793110402   -1.73422374992894    1.69044846594334
N           0.31841219362329    0.63214568552057   -2.68223179388503
H           1.15952122259405    0.04494694575353   -2.42282152009953
H          -0.56159196100502    0.02133079526138   -2.41124466293789
H           0.29178616339827    1.46724085315191   -2.08174206364926
H           0.30813132546434    0.87349870872876   -3.66672369597448
