    26
        -50.46255572  Gyration_radius:  2.4094603717 Dipole_moment: 7.223
 S           1.52768664564933    0.65333546036723   -0.78524250045611
O           1.10548008170302    0.95267075398963   -2.15840495970711
O           1.07777005733964   -0.70091213450511   -0.42520991718288
O           2.90686822888598    0.89908536308940   -0.50695043555884
O           0.71014130448102    1.63885885456851    0.13789561119646
O           0.07259761984641    0.46787580884776    3.14670128582939
H           0.25661414135917    0.29316048245105    4.07052716189183
O          -0.69600124693357   -2.33175459327380   -1.52312654694915
H          -1.18709077831040   -2.52853061630028   -0.71927144646906
H           0.13670424493539   -1.91591848591572   -1.21089998928721
O          -1.01501280386049   -0.95190438289523    1.16305013114533
H          -0.76077223029835   -0.53872086269827    2.01439123472170
H          -0.18294733574026   -0.92541696660589    0.63819175047935
O          -1.94859360528188    1.10894449079906   -0.05072946903887
H          -2.36946924338247    1.69728660982446    0.57783564286047
H          -0.24919124181467    1.51380876010933    0.00604734454501
H          -1.71973820902579    0.26732322506608    0.45972611772420
O           2.43537385007799   -0.00678936381132    1.94518544365810
H           2.33779193591382   -0.91249800046858    1.63931914364827
H           2.70272091766930    0.48542672607840    1.14605780090048
H           0.94704500531280    0.46620472941654    2.69610146348373
N          -1.25170853650098    0.07446231546048   -2.47485189730085
H          -0.22147937173917    0.47013871865175   -2.42061298970737
H          -1.64949310986796    0.21263690569576   -3.39694682837998
H          -1.17361627330268   -0.95002352306811   -2.22201904023837
H          -1.79168000710328    0.56124971514030   -1.74676410177414
