    26
        -50.46255571  Gyration_radius:  2.40940896791 Dipole_moment: 7.222
 S          -0.23994636430745    0.29257020984713    1.79838975497736
O           0.33235939810056   -0.90737650460225    2.41971878042063
O           0.70947060976751    0.82371747512575    0.80714303955020
O          -1.48960965807218   -0.20752406451942    0.97362447933138
O          -0.73267555065606    1.27317362248392    2.71251861007271
O          -2.16925812894850    1.59853883533973   -1.69172470535387
H          -2.56694232601697    2.32496144971497   -2.17338138077738
O           2.83881646640245   -0.23688327052533   -0.35569993897641
H           2.24060542512825    0.31084225263895    0.19742274552025
H           2.59335159948068   -0.02719211927147   -1.26227194323668
O           0.22156633544261    0.40944567284017   -1.75332254068303
H          -0.62293099628511    0.86741341809657   -1.94626731029814
H           0.41543825258092    0.66850159311998   -0.82389034208302
O          -0.68997511624795   -1.87530270830747   -1.01745643101641
H          -1.21939869714557   -0.87602943433159    0.31531667718412
H          -1.48632578581030   -2.08445016649300   -1.50775631417132
H          -0.31131723649936   -1.03779134903075   -1.43749714418841
O          -1.33119308832523    2.75538529075123    0.59104226147003
H          -1.30849725597047    2.25756448969231    1.43009756628321
H          -0.40694737470297    2.94188614548744    0.40575917662990
H          -1.99817657788787    1.94167268358329   -0.78580412651965
N           1.45980478867111   -2.27896297959298    0.60992191051640
H           2.14856939976764   -1.60314691857315    0.17574351731633
H           1.00493300430794   -1.73246879518895    1.45571971459627
H           0.70183250062467   -2.46518708281294   -0.06047214830841
H           1.90644638653082   -3.13335775546891    0.92312607171772
