    26
        -50.45234001  Gyration_radius:  2.54400056569 Dipole_moment: 2.493
 S           0.33883041999915   -0.34668042195415   -1.51989754152926
O          -1.11388668445546   -0.40900803435664   -1.23838867239315
O           0.83895595354121    1.00062180454249   -1.34681658516765
O           1.04316117753338   -1.31952548573959   -0.69919633262816
O           0.51682351680658   -0.72834614219173   -3.01175298678821
O          -1.06957596020061   -0.35404079631332    2.53799910422643
H          -1.33999284758642   -1.27193231411301    2.58779875045369
O           1.88193408257979    2.13256584698010    0.70307680813567
H           1.54020372578689    1.68389949294361   -0.11785905750612
H           2.59797923352889    2.69867824164984    0.41067367053560
O          -0.57975974431708    3.02632359296716    1.22588311618108
H           0.35297657061818    2.78767256343912    1.02051536533368
H          -0.64599342290028    3.06650491280845    2.18271237290050
O           1.39351296836962   -0.40937103299307    1.75744475189201
H           1.73896661957917    0.47968730740892    1.59293981730867
H          -0.08865546458071   -0.36874027372463    2.31603477763553
H           1.34019744775769   -0.83281954877102    0.87156123094168
O          -1.98748832288137    0.97508095172719    0.57768816534402
H          -1.61109756500718    0.40975544528289   -0.28610669231894
H          -1.71109245088652    0.41460468024802    1.39552032150721
H          -1.46988885841811    1.84444776379220    0.68125546920539
N          -0.44861615990330   -3.05790047141649   -2.35569424262811
H           0.12634303670569   -2.90674034594933   -1.53127199629195
H           0.16729770176290   -1.65949708780993   -3.02729671922279
H          -0.40999582441975   -4.03460403686984   -2.61755050558183
H          -1.40113912899004   -2.82063661160912   -2.10927238951445
