    26
        -50.45234094  Gyration_radius:  2.54405313921 Dipole_moment: 2.490
 S          -1.45633731283499    0.36404787502228   -0.54660086147051
O          -1.15492929968525   -0.90255042629805   -1.17915289646810
O          -2.90819652594017    0.74921130248301   -0.92898038129092
O          -1.42819491063551    0.23621932876795    0.92879585247527
O          -0.56125672632376    1.43116784573717   -0.96685155501417
O           2.31153713678169    0.26241620153722    1.50798016745915
H           2.27925930500445    1.14041369510212    1.89032249221481
O           1.07985376815208   -1.86848066024279   -1.98105753285527
H           0.93204830275355   -2.34349384725565   -2.80035704842066
H           0.19778273824741   -1.47763259677223   -1.73311293711472
O           1.22137087554585   -3.05784502376814    0.40507816520935
H           2.15509539718266   -3.09600372541991    0.62456367977884
H           1.16460045965798   -2.70612402602712   -0.51276733710678
O           1.94979271901185    0.60947822522686   -1.02672446485787
H           1.05221269525892    1.00918322466066   -1.06713750550830
H           2.25619136106141    0.39449964767734    0.51225020717483
H           1.87388457100678   -0.23313416779873   -1.49696642829441
O           0.27990571280008   -1.20550552196693    1.91929914927669
H           0.49895009361894   -2.00273409368668    1.32713074570264
H           1.10955102602380   -0.60004035206766    1.85083862024452
H          -0.53412917114666   -0.61547546428342    1.47529950826407
N          -2.50563692051588    2.93517389275408    0.42990946948684
H          -2.79195558716436    3.90472186985582    0.47483767695973
H          -2.41571122534879    2.57455356581920    1.37128793099610
H          -3.01454595067468    1.62470349026957   -0.46861541555269
H          -1.59114254188633    2.87322974069685   -0.00926930126857
