    26
        -50.45234067  Gyration_radius:  2.5443633457 Dipole_moment: 2.491
 S           0.23787740751626    1.45022667496726    0.62533164506464
O           1.44887934528367    0.72736103197435    0.95144978815990
O          -0.94887874896994    0.77773783660721    1.20287983619613
O           0.32526416800251    2.84490857294703    1.29592447219621
O           0.05606470430402    1.62833627630390   -0.80712000221616
O          -1.36502908936447   -2.05357656056440   -1.27176852498936
H          -2.15418713047501   -1.65730032054791   -1.64367578488806
O           2.69254139622795   -1.10015349736427   -0.34613523339315
H           2.25490165370649   -0.34615475184916    0.13575612579038
H           3.63535889250369   -0.96060532055843   -0.24449374171549
O           1.29687154790529   -2.84160386419411    1.11953605794136
H           1.88947610728618   -2.23339066331219    0.62133701302188
H           1.15202136828766   -3.60395005701263    0.55447742991055
O          -0.98828082296448   -1.66668096664076    1.21024075935463
H          -1.22996558913928   -1.86022008915054    0.22858692569291
H          -0.05970492229784   -2.06503965991759    1.32538999282644
H          -0.94182532836190   -0.57047013219174    1.27543422672166
O           0.59437893331784   -0.59979121007112   -2.12277885570442
H          -0.59119260944541   -1.54552655173254   -1.66539114018896
H           0.39802875262703    0.28375142295442   -1.73832547325342
H           1.43671722589867   -0.86694600212872   -1.72784711130603
N          -1.96872746518721    3.34502407813476    0.16684973120923
H          -1.54078582467074    2.83789864998899   -0.60303992860595
H          -2.51984489374060    4.11027496455730   -0.20011446999329
H          -2.58106546909415    2.70150785294769    0.65177768312654
H          -0.52889359940896    3.26438229552732    1.00571857886618
