    26
        -50.45514736  Gyration_radius:  2.45725102909 Dipole_moment: 5.615
 S          -0.12376056063768   -1.32625146147997   -1.45107490240524
O          -0.82481499203665   -0.94225647340483   -0.25547271247715
O          -0.92155026841710   -1.47205105710448   -2.62795402052730
O           0.97385336662270   -0.26260319719899   -1.73015376704298
O           0.66540994286996   -2.61107516692398   -1.18801385530514
O          -1.31680688182394    2.40400152592184   -0.24797974512219
H          -1.60509112122814    3.29645536664871   -0.44630521706743
O           0.58667842681772    0.09411682615316    2.52878235604789
H          -0.38259890823889    0.19401246694693    2.31054584252263
H           0.71455541696978    0.51729037072211    3.37902244678501
O          -1.87661989926712    0.48923464708958    1.72251178861736
H          -1.83995381375580    1.30864382931056    1.20599963734236
H          -1.76916874988565   -0.20280296489514    1.04935183235792
O          -1.38892691876812    1.16916049813919   -2.61633224545168
H          -1.44140685388587    0.19720111687059   -2.66252452848461
H          -1.44317381288052    1.88464920514423   -1.07680300670503
H          -0.56340405088191    1.39113801024959   -3.05490646215665
O           1.16860981056981    1.36846887122446    0.20272937384393
H           1.05976854713637    0.88016499435198    1.04423687379246
H           1.09525696716290    0.37864856634035   -0.93778267727093
H           0.32896603286115    1.85295199199472    0.08180652998873
N           1.82363499604315   -2.10632693769673    1.03160517898372
H           1.97131107728832   -2.92152779983072    1.61208443114268
H           1.14963404570240   -2.46760635548346   -0.26570489938052
H           1.24152786101599   -1.44445977141364    1.54251178652054
H           2.71807034013441   -1.66917708085279    0.84981996104800
