    26
        -50.45234064  Gyration_radius:  2.54420224978 Dipole_moment: 2.489
 S           1.17523656762015    0.73687133526020   -0.79055723114547
O           2.20975129394104    1.48827865867781   -1.66681124451930
O           1.73466424718957   -0.55647385780242   -0.45938043768354
O           0.88225079880765    1.54218656450563    0.38500816111911
O          -0.04636730163331    0.58696474721232   -1.61457844318862
O          -2.53198689042185   -0.37174652185325    1.06976525040541
H          -2.97141680766798    0.47782935440113    1.01309723479047
O           1.35788118420224   -2.05435218827519    1.58650176807471
H           2.19176646094212   -2.46165522119298    1.82618491281841
H           1.56240662735145   -1.45284048976470    0.81937509040356
O          -0.51237108859063   -3.27568272523854    0.12291507504605
H           0.22485939693009   -2.90783033204759    0.66171698266383
H          -1.18942412513109   -3.55603567915425    0.74298973989125
O          -1.55416325759863   -1.26655689053398   -1.09708807781867
H          -2.03761454639443   -0.89702833985112   -0.26688665348372
H          -0.84306132173220   -0.47769231153470   -1.37986728382651
H          -1.05478888376379   -2.08396870810745   -0.75537953262132
O          -0.28924677582740    0.09867346821476    2.26377018118817
H          -1.69653846771707   -0.21332607080492    1.60730388824134
H           0.27384429367452   -0.68814268177244    2.29184351053369
H           0.16349329274975    0.71796713488703    1.64857632922421
N           0.53068724116419    3.48051623055049   -1.64275600147640
H           1.75069298449074    2.35630590160443   -1.82570190935526
H          -0.24460089691810    3.09871068360835   -2.16947708470458
H           0.41600703170841    3.18845402902603   -0.67600084141000
H           0.49803893264637    4.49057389998500   -1.69456335313835
