    26
        -50.46259457  Gyration_radius:  2.42183195442 Dipole_moment: 8.963
 S           1.39868949830087   -0.26313417035163   -1.28109482713405
O           2.72083827395922    0.16129951446682   -1.61353241924819
O           0.41275499549296    0.84714678255655   -1.42904432226720
O           0.90104007654023   -1.45583347683469   -1.93983792243490
O           1.34274725143021   -0.64161622165105    0.25238945657245
O          -1.46143452805812    0.64153136453855    1.90990272026694
H          -1.91452164313242    0.79507853218787    2.73982259015364
O           2.13812025507905    2.68447940384545   -0.62571372040918
H           1.42735575701292    2.19857708517193   -1.08313466338991
H           2.92970294467795    2.19965266979782   -0.88756711705121
O          -1.23163763068473   -2.38887166482639   -0.90646474945988
H          -0.35456561825105   -2.06295117912819   -1.28786128577753
H          -1.45208990139739   -3.17038140098483   -1.41531650877382
O           1.34345305512322    1.52259467406303    1.61426426470591
H           1.45911442761540    0.19384649500724    0.80328837302653
H           1.65914503427129    2.14102006757659    0.91097817144770
H           0.38703937630016    1.62725191071397    1.69282556896543
O          -0.59180695757957   -1.83861864734578    1.73877542362080
H          -1.10364944962362   -0.28732646338357    1.95713876281229
H          -0.96725700373492   -2.23656561652979    0.93713886612359
H           0.31840553756675   -1.62665577740509    1.48133976860703
N          -1.91661167702379    0.19535068021357   -0.71488309003747
H          -1.91390988106509   -0.84083895367886   -0.80941025615511
H          -2.66001310291502    0.62685514011349   -1.25133849874105
H          -1.95183284900960    0.46354119989887    0.28819097219956
H          -0.91907622089318    0.51456804196702   -1.08085555762435
