    26
        -50.45234202  Gyration_radius:  2.5439937358 Dipole_moment: 2.487
 S          -0.27887933428399    0.34571003008908   -1.54008945818320
O          -1.34035040724673   -0.53493417986862   -1.07682587451900
O          -0.44588648649534    0.57242091375212   -3.06417890510120
O          -0.30464380180437    1.64155369495555   -0.89578667089567
O           1.03571590817244   -0.31123378928119   -1.35354888549624
O           0.55496803340775   -1.57103379743147    2.20302521607153
H           0.45999948768751   -2.47699548812142    1.90579208214934
O           1.49885602113987    1.97696934565720    2.20062421906291
H           1.47051833989248    1.67067890955805    3.10989814283485
H           0.57155422381234    2.19322367338258    1.94990336647997
O          -1.04416968739081    2.31563134008390    1.46420695902653
H          -0.81173715306466    2.07816861850457    0.52516093487416
H          -1.47029629182095    3.17291290996462    1.41709141072035
O          -1.65623694878130   -0.40904891969792    1.54412250769698
H          -1.65011572177610   -0.50365897329173    0.56538323442383
H          -0.33309848933697   -1.13124474802431    2.02968730813423
H          -1.62384375264338    0.54444634844638    1.70781726267259
O           2.11520014451744   -0.10975529252074    0.83052584105336
H           1.55587481349710   -0.76370820192026    1.39521188207241
H           1.66781533451371   -0.14621529178592   -0.17391881883495
H           1.94811280018535    0.79937826463583    1.25418727165569
N          -0.38473562598994   -2.02295786802404   -3.28317750028966
H          -0.43182460308349   -0.35958253370650   -3.41136379548564
H           0.56689138369951   -2.22278172854430   -3.00249723116370
H          -0.94676207592263   -1.96782218242384   -2.43818287941436
H          -0.72292610085967   -2.78012102437192   -3.86306762954823
