    26
        -50.46255550  Gyration_radius:  2.40907342195 Dipole_moment: 7.238
 S          -1.02215906176877    0.08378556267886    1.52467664436519
O          -1.09845114728054    0.76227102148447    0.22076189514913
O          -1.81319658755797   -1.15109417200122    1.47292876631035
O           0.47942032473183   -0.37660151076815    1.68369707270414
O          -1.29766203809663    0.93502832063069    2.63796497038035
O           2.67948989725014    1.67686686698098    0.36163349962602
H           3.26997212164599    2.43129516144488    0.35136881087538
O           0.97977702561026    0.60735818426979   -1.39946877997566
H           0.20877872302591    0.77169369261081   -0.81044753732973
H           1.72106336247543    1.04600874943550   -0.93237855882691
O          -1.87889882347004   -0.06915481147927   -2.16884232398272
H          -1.81930682916699    0.38748741893990   -1.30179091481953
H          -1.10331099710534    0.22757047482025   -2.65514138596799
O           1.26434286442052   -1.78278690101234   -0.50560307914851
H           1.22651407744312   -0.88824065039399   -0.97412789763632
H           2.19308266204568   -1.97286138114792   -0.36534752624315
H           0.73870407264203   -0.95841659072118    0.94375210930730
O           0.49234372188616    2.61438782874860    1.62195291627806
H          -0.05761071716182    2.03081115800152    2.17804691676635
H           1.93711438207671    1.92784798036003    0.95640937057713
H          -0.08407827739313    2.84757028623328    0.88930355834209
N          -1.40613256406493   -2.26432611904732   -0.76825151283478
H          -0.38783044876563   -2.41059279309383   -0.78459228442410
H          -1.66037071434582   -1.51474252594197   -1.47050848801526
H          -1.91495973241843   -3.12660176551016   -0.92684556611217
H          -1.64663531666206   -1.83456349562035    0.22084932469321
