    26
        -50.45514715  Gyration_radius:  2.45717208374 Dipole_moment: 5.610
 S          -1.94037345833757   -0.04486682013919   -0.33401936632318
O          -2.63760102992951    1.30225037675125   -0.12899158072045
O          -2.91021851468528   -1.07269368966356   -0.54749656647795
O          -1.13175971215893    0.14740606329716   -1.64676508928629
O          -1.00744312600042   -0.26810530217171    0.73747805811720
O           1.48402916175211   -2.29388103334608   -0.33011298848486
H           1.99912826573807   -3.03776537189944   -0.64667336634162
O           1.74106160324239    1.45519777602445    1.26320939424813
H           1.53202368034790    0.57490866592732    1.68572850617933
H           2.61574498285447    1.69829359153092    1.57006090430778
O           1.16110993051813   -0.95650622989711    2.11274930768838
H           0.22742043199228   -0.81296956446552    1.88639385668052
H           1.47152915224404   -1.54742541554990    1.40986067906590
O          -0.95300900281926   -2.72979421830225   -1.33499467864148
H           0.54919745938316   -2.48040722538708   -0.58302753852687
H          -1.73382055457998   -2.30926019366695   -0.93122535681993
H          -0.93092855562242   -2.39262956456892   -2.23441809251651
O           1.35377820383041    0.30265896324546   -1.16448515075327
H           1.48807633348605    0.81079978218566   -0.33845723450741
H           1.52116045103278   -0.62766535873436   -0.91808005521558
H          -0.12760376371924    0.25687241755617   -1.46399048996804
N          -0.68748939172510    2.86254498024752    0.40543070170267
H           0.04804173504908    2.30398600631557    0.83543428403564
H          -0.92700536298393    3.61878169691160    1.03303641017927
H          -0.32740819798040    3.25480406952253   -0.45506700370493
H          -1.87764071042668    1.98546559960544    0.11842247335827
