    26
        -50.46742657  Gyration_radius:  2.40209049668 Dipole_moment: 4.778
 S           0.69259549667101    0.24670850367946   -1.55625103008457
O          -0.69523868788670    0.55328243610059   -1.21049237109421
O           0.76732300136801   -0.55703503481751   -2.77390360149922
O           1.53007948697285    1.42114609699289   -1.53833914267542
O           1.21486543162614   -0.75991132696339   -0.46147891701695
O          -1.21537761657091   -0.22348536659915    2.25782914332833
H          -1.78341120090052   -0.21800024241613    3.02889043630744
O           1.21677298266778    2.76693756189771    0.66285224972993
H           1.86724159467813    3.47075849698298    0.66843957536602
H           1.31889329084649    2.31333322368568   -0.21508404252006
O          -1.71514980076542   -1.57184006051512   -0.13271048794170
H          -1.51392661476529   -1.37858724617133    0.79878698945535
H          -1.50653718612186   -0.72086431263336   -0.59009792879968
O          -1.44127381722105    1.99852488747295    0.88909327200695
H          -0.64001339326653    2.53038512792209    0.99738830525712
H          -1.32067240156336    1.57196422280017    0.01652656746807
H          -1.39243495215499    0.63322986295190    1.77500269613601
O           1.43447630303041    0.33409734750386    1.84465912757598
H           1.36965365998042   -0.31896340089142    0.43331902984212
H           1.39925264429546    1.28043145987283    1.60561291594668
H           0.54897917519247    0.09380882950136    2.17286997158630
N          -0.03153124893669   -2.73406186410030   -1.74310667364495
H           0.30888878511212   -1.82580122471554   -2.27640373097542
H           0.77653832510531   -3.12046475928950   -1.26347812780247
H          -0.74252590270248   -2.37631875550330   -1.01302623502989
H          -0.44746736470096   -3.40927446276377   -2.37689800093486
