    26
        -50.46147057  Gyration_radius:  2.59167007307 Dipole_moment: 4.224
 S          -0.34352581563079   -0.43169305517802    0.50258572550138
O           0.38084295960542   -0.47618281274118   -0.75980845207562
O          -1.74891193280201   -0.81883971406368    0.28979704159131
O           0.29814196860958   -1.15953327814114    1.57073150934957
O          -0.43369802472820    1.08627241859805    0.90497636858449
O           2.69913317157313   -1.24001801031385    0.38219194652697
H           1.99401204187596   -1.48255207127156    1.00540569746045
H           2.19313801534610   -0.95304778547124   -0.39175603226213
O          -2.18728319442498   -1.94043229927197   -2.12731878084592
H          -2.07809155433682   -1.65148514705711   -1.19929144644583
H          -1.70089097302930   -2.76238655891300   -2.20625248275426
O           3.51111103875847    0.97530943129737    1.62089306141467
H           3.30773971536480    0.16933228279900    1.08746750675653
H           4.32222941553227    0.78466704878674    2.09433826540045
O          -0.98276412013405    0.35318359430050   -2.84201525391423
H          -0.27894277182378    0.11319597845934   -2.19385269646905
H          -1.47201270988303   -0.48861530604703   -2.94581065326101
H          -1.86409880879925    1.06296006180763   -1.86917848657142
O           1.15471246683553    1.02645970131940    2.88334230894849
H           0.18078854149125    1.20472184534229    1.70132845280953
H           0.98848824184395    0.07158241303846    2.86642626033451
H           2.05121432366129    1.14735787023437    2.49134629450986
N          -2.40704600196106    1.33161628302778   -0.94898023566220
H          -1.90394318707772    2.05988581483341   -0.44440694409137
H          -2.30352737395341    0.43701849820710   -0.35809575427375
H          -3.37681542187134    1.58122284640410   -1.11406323055952
