    26
        -50.46147058  Gyration_radius:  2.5915999505 Dipole_moment: 4.223
 S           0.56617045433336   -0.46757541826548   -0.13518125383602
O          -0.66325455288207   -1.23133269558865    0.48085700837780
O           0.88895640852033   -1.05743557701956   -1.41197856841804
O           0.17757270085430    0.93356696716444   -0.21387882830574
O           1.62414578433811   -0.63981057507386    0.87548524942243
O           2.71772103776069    1.69564737689056    1.67704324995942
H           3.15926225240083    2.12588541542874    0.94330544245589
H           2.44939224915233    0.81390228884521    1.34965492012361
O          -2.60960295257031   -0.56534772992117   -2.96187375960872
H          -2.85543624995262   -0.68563428537319   -3.88029564126735
H          -1.83682844759411    0.04976545544216   -2.96196384574939
O          -0.34455137438179    0.83444697831810   -2.85549408045565
H          -0.35181990574457    1.30535394605475   -2.00953945888996
H           0.25445683167207    0.09256890917577   -2.66796126482582
O          -1.37165254012876   -2.50336120042061   -1.59781044224558
H          -0.47264583094701   -2.31181017612886   -1.90572190366240
H          -1.05659960781811   -1.78597303386583   -0.26976286193379
H          -1.95879163478973   -1.88059936614527   -2.08712342076284
O           0.10820081958887    2.18866667177932    2.08903604297526
H          -0.03214642557466    1.88515937056460    1.16102681403979
H           0.00272720944053    0.83969759524824    2.71886652552152
H           1.07697241060627    2.32684363191867    2.12321255758867
N           0.09331754662569   -0.24344975899433    2.89818667529902
H          -0.77114209661464   -0.71591381767677    2.63824565315086
H           0.38341544817930   -0.47029441896212    3.84391076372142
H           0.82216045552436   -0.53296656339140    2.15975442732540
