    26
        -50.46742655  Gyration_radius:  2.4021277737 Dipole_moment: 4.781
 S          -0.44653064529943   -1.63051282493246    0.32406717571229
O          -1.46032797998949   -2.53247579141657   -0.21715947918442
O           0.21567235755938   -2.09110215992616    1.52004086357830
O           0.50357308469524   -1.22252980741065   -0.71059177980251
O          -1.29635198074051   -0.35176133850500    0.68081567969918
O           0.85678411892443    2.35013467310121   -0.60762531334170
H           1.28645320313188    3.14592526582587   -0.92267424792499
O          -0.65357806915562    0.59010617376728   -2.15718714286850
H          -0.10940965045887   -0.13444471886963   -1.76255040250245
H          -0.35698542597928    1.37948995905602   -1.67302563571961
O           2.03254892089313   -0.40355137671118    2.29817187753149
H           2.36264447727814   -0.70269339846744    3.14672767044873
H           1.39020803260383   -1.09984485926500    1.99886078317579
O           2.57212447505940    0.39342938184764   -0.30580998397258
H           1.56769149054659    1.64955625427965   -0.56020421442368
H           2.71178987373155    0.22490572638850    0.63691433281035
H           1.94641191951157   -0.30853485011823   -0.57696617246804
O           0.09492329121885    1.44533106741515    1.86335058769541
H           0.34660495830291    1.94367191708719    1.06476001569074
H          -0.77243663472843    0.33161770440650    1.20769793554525
H           0.87839910289814    0.92721673701498    2.13112265798998
N          -2.76978185396437   -0.77537605372255   -1.49713248352365
H          -3.32332131397329   -1.10527452877600   -2.28164169875595
H          -1.98030057948515   -0.10958642175894   -1.81361027202951
H          -3.34622818778363   -0.30719113331896   -0.80365375744419
H          -2.25057697479893   -1.60650559696974   -0.98269699591513
