    26
        -50.46742648  Gyration_radius:  2.40208242293 Dipole_moment: 4.782
 S          -0.12140822331216   -0.21637411173420   -1.70376196074844
O          -1.32340268832582   -0.94886989001427   -2.01966547486082
O           0.75362174528173   -1.08623682229026   -0.72266618801232
O           0.79305931699583   -0.00082678332441   -2.82243159817931
O          -0.40637009355037    1.03724608468283   -1.00590678292821
O           0.05012814271742    0.52559595047251    2.51992462932376
H          -0.00584657624529    0.86026077394861    3.41547995736436
O           1.64207745605902    1.57842060715334    0.48678160612505
H           1.35141302399997    1.13955847750655    1.30438670992746
H           0.83212191031268    1.56054794901389   -0.07935380677083
O          -2.86281105758683   -1.17274982762985    0.06235768258011
H          -2.33060657581216   -1.05609621641097   -0.76846026891237
H          -3.58753164805465   -1.75387988886039   -0.17342569348716
O          -2.01860740825816    1.26315504440956    1.09242952069574
H          -2.58916154623165    0.49926537083312    0.92625053536340
H          -0.74865430403972    0.88353566801058    2.03796242452906
H          -1.51443921489811    1.36194691737725    0.25943340820090
O          -0.56608896904661   -1.86435453564960    1.33061161676654
H          -1.48272439447296   -1.70350975718527    1.03416022590370
H           0.22256630066113   -1.45360795848541    0.05328552828857
H          -0.32504401538057   -1.12235597354441    1.91436988604908
N           2.88916196163422    0.33758104672263   -1.43205015818041
H           3.19637097918675   -0.59508625580052   -1.17101450932035
H           2.02468645007688    0.21840115190637   -2.11244737238958
H           2.48965978716974    0.83840217665833   -0.56214245014599
H           3.63782967123088    0.87003080222198   -1.86410744713822
