    26
        -50.46243622  Gyration_radius:  2.53441352448 Dipole_moment: 5.579
 S          -0.64595375852791    0.60496942573030   -0.68930451282849
O          -0.37209524354391    0.22653985168473    0.71550724017184
O          -2.18977137733293    0.56809605695989   -0.86390550381542
O          -0.15614977855982    1.94469431421191   -0.95377245765756
O          -0.10943185493297   -0.38300517467510   -1.60118928599771
O          -0.76573870905059   -2.30053172403461    1.29614124517854
H          -1.71527896179863   -2.41041547076712    1.36827705389578
H          -0.61948833731565   -1.33479339527387    1.15210280993495
O          -0.62310044954894    2.91178756247022    1.44596646044166
H          -0.32984578904407    2.73946959534117    0.52454398816079
H          -0.45501043221299    2.07951905332734    1.90024739020012
O           2.10778671660705    0.62689242047258    0.05551154452330
H           1.88068458258799    1.25636085540479   -0.63891820160583
H           1.23970002996127    0.46674025105568    0.49214216860627
O          -3.07397915492741    2.57639986315580    0.53713483675261
H          -2.23570174717941    2.80056748358280    1.01725203074479
H          -3.22889659798958    3.29877115453940   -0.07523531583823
H          -2.58845704697135    1.30058812772933   -0.31600805081827
O           0.40710876333110   -2.82965174381749   -1.00889892023887
H           1.71771999713310   -2.36954703737599   -0.75757208909107
H          -0.03753372140399   -2.85347822799996   -0.12709758583155
H           0.08376221052978   -1.97549841698587   -1.39902163979866
N           2.71930934833494   -1.87002251285288   -0.56395523487128
H           2.50574352637343   -0.84297447041323   -0.36819705050986
H           3.30938882019532   -1.94931244059204   -1.38553830230320
H           3.17522894527012   -2.28216540089313    0.24378739259248
