    26
        -50.46972957  Gyration_radius:  2.43072843039 Dipole_moment: 5.136
 S          -0.70308623492674   -1.08453279991914   -0.89173425116301
O          -2.11527513362926   -0.79215825638232   -0.82919558982527
O          -0.23413793200945   -1.75445204380589    0.33830373470356
O          -0.24627974114625   -1.74801630993144   -2.08450431034666
O           0.06695988810377    0.30410200986650   -0.89606267931843
O          -2.86028336742046    1.72674455339912   -0.48658594338751
H          -3.21242809978231    2.06688419305914   -1.30936792796421
H          -2.66826153160754    0.77621714873088   -0.64702472363972
O           1.94390642321647    1.55205000957829    1.30429621796631
H           0.98714208987508    1.63004850679565    1.46916520874908
H           2.15054571613629    2.22435706578197    0.65221476999564
O          -1.92466577561102   -0.63836962909213    2.02852266430010
H          -2.74774606870438   -0.65287151369824    1.53143219340769
H          -1.31442154663357   -1.20123459943439    1.50869666397821
O           2.24342260945826   -1.04819593978045   -2.23536826385147
H           2.17358476647968   -0.19221901694032   -2.66303316060084
H           2.40266920449620   -0.98005055696212   -0.63795920705703
H           1.32169028669714   -1.41859896648719   -2.26677071371206
O          -0.79394592373402    1.58640912208975    1.20886568674171
H          -1.19993119543403    0.82475013612799    1.69977980808656
H          -0.26759434433437    0.82279901816520   -0.11497512329966
H          -1.54646355296954    1.99196896411082    0.74244373766014
N           2.22020717804264   -0.99707610266423    0.40675914798518
H           1.22840979183344   -1.39894898835558    0.48652948850301
H           2.20278187385237   -0.02297984780224    0.78866143156210
H           2.89320060976268   -1.57662615645272    0.89691113053948
