    26
        -50.46259449  Gyration_radius:  2.42201400958 Dipole_moment: 8.955
 S           1.50946736669065   -1.16032852255042   -0.20732578289415
O           0.57516640171323   -0.91770064429027    1.04423657553462
O           0.87135575922928   -2.26805538570124   -0.89275746963043
O           1.37681583413371    0.08386859054651   -1.02033862890036
O           2.85194696478141   -1.35545595433066    0.23796730757031
O          -1.66542656632605    1.73671316908543    0.63759673815539
H          -2.31305692938119    2.32169642564161    1.03259968834318
O           3.17098358015906    1.39333378511575    0.41637438574312
H           3.65234441682936    0.61286582097210    0.71507893526145
H           2.61959950340394    1.04286776834143   -0.30736156546226
O          -1.64517807439720   -1.99138531660393   -1.17146707670882
H          -0.65830645570350   -2.14012402922683   -1.01417030189100
H          -1.94914864961380   -2.77916381849824   -1.62458284020706
O           0.98716209171922    1.45336003942811    1.90844622998893
H           1.84378991817625    1.63266898307429    1.44936380110289
H           0.28711412748748    1.89542030275177    1.41208478628663
H           0.80944121768085   -0.03281900671685    1.46502268991939
O          -2.12846603870832   -0.77589172207022    1.27860578298327
H          -1.22862515148612   -0.99012443482575    1.56843336053949
H          -1.86617390239867    0.82514440319174    0.98639457800246
H          -2.22929297152026   -1.28436309439998    0.45816700736471
N          -1.00512623950571    0.55697778302407   -1.70118071313000
H          -1.45576565013753   -0.37995149204804   -1.65824505223555
H          -1.10675132111326    0.98947355039867   -2.61182121194182
H          -1.36561448662300    1.16300221349679   -0.93825641747715
H           0.06174526493004    0.36797057619791   -1.46286479631435
