    26
        -50.46742659  Gyration_radius:  2.40212285552 Dipole_moment: 4.780
 S           0.98922697847529   -0.47500518748056   -1.32614221855008
O           0.27055268088725   -1.40475732853193   -0.45506009595364
O           0.72983128742753   -0.76442827628410   -2.73438306203901
O           0.30142541217425    0.93163484225604   -1.14431840257772
O           2.38093649978443   -0.35636633709331   -0.96541979278583
O          -1.46656480242897    0.48055106422404    2.06091421109207
H          -2.00233463215857    0.49990774359541    2.85449602560824
O           2.65906041586080    0.08359349669218    1.58071932777277
H           2.59583590768819   -0.14307688525208    0.61544104621067
H           3.58660468493827    0.25979512753148    1.74549231024059
O          -2.20611071471973   -0.64405514148865   -0.38239306321935
H          -1.33257783883772   -1.10629339716419   -0.36912266502499
H          -2.16111325486939   -0.06166993362931    0.39497709989946
O           0.69709667149315    1.91597425676464    1.18744809042647
H           0.51044657017091    1.35661251706479   -0.25279528767713
H          -0.11176268998213    1.56499636923747    1.60224584475260
H           1.43776069831125    1.36138572662320    1.50013627001590
O           0.37834353180285   -1.37403936535773    2.19849717160197
H           0.34551104421752   -1.59548489155472    1.24577658978045
H           1.24710847175812   -0.96201677694816    2.30869548607135
H          -0.82206759913595   -0.27401291096790    2.17793727959167
N          -1.63640516897167    0.15065645409141   -2.79530037427551
H          -1.98795539211597   -0.10084744008518   -1.80541138350746
H          -1.53654617706925    1.15904814649134   -2.87008591598831
H          -0.62004735884680   -0.28355790940712   -2.85425201002319
H          -2.24625520585026   -0.21854396332372   -3.51809248144802
