    26
        -50.46742658  Gyration_radius:  2.40215950842 Dipole_moment: 4.782
 S           0.20989024194584   -0.22373412406533   -1.69345824423499
O           0.63013255568981   -1.57785958644584   -1.95945180223555
O          -0.12714465606643    0.57030662494250   -2.87248795402519
O          -1.16236984473729   -0.26653655431207   -0.91889332018768
O           1.15264785631114    0.48712214349702   -0.82997699333254
O          -0.07793736077525    0.39258392743229    2.54327713364597
H           0.04705456442963    0.58654143202389    3.47275259719969
O          -0.19248528831779    2.27101160452210    0.48413536587235
H           0.46796118937469    1.70826844728090    0.01095628784964
H          -0.40847086329375    1.74479976313426    1.27283594752214
O           1.25904913954231   -2.81755375872425    0.23639306018330
H           1.08561110167084   -2.35933784706853   -0.62790250318090
H           1.42476616927807   -3.73512109312346    0.01473065829627
O           2.13488228842002   -0.47526740051003    1.44219651426097
H           1.96997292442172   -0.04934292722742    0.57663261794248
H           0.81497638787747    0.11042884482259    2.19479160730994
H           2.05572762598136   -1.42085832953062    1.25176229212287
O          -1.06166515745284   -1.75860891616990    1.16114056839952
H          -0.24642284261681   -2.26715515806284    0.98598926816324
H          -0.82579229480438   -1.05861116402356    1.79660805778208
H          -1.15066756903786   -0.90614663162227   -0.13791648092639
N          -1.62681562815168    2.24033980613028   -1.68842559814116
H          -1.13756892025992    2.32325045261005   -0.72906101029736
H          -2.51934564553166    1.76925546692109   -1.57087717002802
H          -1.73838293855034    3.14500689549096   -2.13534054310736
H          -0.97760302536213    1.56721810211460   -2.28041035686483
