    26
        -50.46742648  Gyration_radius:  2.40214594802 Dipole_moment: 4.782
 S           0.68180354115412    0.09113884792015   -1.57824040225579
O           0.14565488401091   -1.12989724340875   -0.97712462784545
O           0.07163372824667    1.29600873918129   -0.76525493676777
O           2.12006202034383    0.15658220881062   -1.48710249340596
O           0.12822467352023    0.30882415761857   -2.91254732135572
O          -0.99458520867504   -0.37760596629343    2.34492286164397
H          -1.35460968248336   -0.67698937952255    3.18031893830306
O           2.93189368534753   -0.32662437442863    0.93402507826965
H           3.87618440218692   -0.16501402034122    0.96131324120304
H           2.66429802819754   -0.19679734159908   -0.01395922665717
O          -2.24742712052755   -0.59627828347093   -0.13703284137380
H          -1.39855618932079   -0.97901746945881   -0.46835565266772
H          -2.03066500447010   -0.32880572753801    0.77240031280392
O           0.96251107825550    1.40321782940970    1.63436400676355
H           0.25273962333393    0.87905608455033    2.04777614340616
H           1.74266518425440    0.81919065453220    1.56911265389797
H           0.46934466988884    1.38567394557142    0.15821652949368
O           0.80671831446008   -2.04362674237066    1.42742800316630
H          -0.35248178749788   -1.08361842122776    2.04875484638636
H           0.57150664047834   -1.91122106915255    0.48668467385057
H           1.68621509390935   -1.64673491240043    1.50226690998191
N          -2.18236423813857    1.04087117249980   -2.16025223895083
H          -2.93622704841039    0.91802339548888   -2.82900720742180
H          -2.08299655179810    2.01352920621149   -1.88380463656757
H          -2.32298224663144    0.43178452049747   -1.27930215714021
H          -1.20856048963499    0.71833019892299   -2.57560044675933
