    26
        -50.46742659  Gyration_radius:  2.4021609026 Dipole_moment: 4.781
 S          -1.08333395534496   -0.13883328727115   -1.33102012822127
O          -0.92535386546933   -0.06219677600698   -2.78126551219113
O           0.02610321253020   -1.18480248804570   -0.93108294596030
O          -0.71341479184506    1.12405306569852   -0.69221035015945
O          -2.36143147771153   -0.62634285496032   -0.87292909067904
O           1.53242578008025    0.43102977619881    2.02386091567711
H           2.04017460143604    0.74090423875703    2.77456171755090
O           1.87521362791468    1.23309637638326   -0.62540899394985
H           2.01976071972410    0.83154500170321    0.24834443185578
H           0.89833951940173    1.38167720108318   -0.64691434552935
O          -2.49344293333055   -0.62489669601534    1.72260885375002
H          -2.50279516535794   -0.58346842804621    0.72999536566912
H          -3.31317379098638   -1.05428760447802    1.97200979414487
O          -0.81925083662496    1.58046187491728    1.92195926075941
H           0.67527876292946    0.94448456478013    2.03611729809977
H          -0.85563436755597    1.60961669401383    0.94436326418907
H          -1.50581086641965    0.94059216776269    2.15833217954458
O          -0.03726598294847   -1.76677089058306    1.56300991844752
H          -0.03657520363395   -1.47074986768123    0.03506175553628
H           0.60979702142523   -1.10003635152101    1.85657535386969
H          -0.92045406143786   -1.43072094577669    1.80991519579357
N           1.61065360148962   -0.15873360330906   -2.80943444660180
H           1.84665112634311   -1.13954718656675   -2.68839634801398
H           0.50871213441397   -0.09543222643136   -2.88841391806800
H           1.85488051699258    0.38142355234370   -1.90637716334242
H           2.06994667398195    0.23793470305658   -3.62326206215338
