    26
        -50.46742652  Gyration_radius:  2.40208519644 Dipole_moment: 4.782
 S           0.29104129552578    0.44994681774128   -1.63637246625332
O           0.16926853250519   -0.24258333924021   -2.91685162968446
O           1.15142709531536   -0.56483060833484   -0.79084735626113
O           0.98358174996383    1.71469315413841   -1.68050478203557
O          -1.00554638888777    0.55391137185078   -0.96705546771465
O          -0.64055101018413   -0.54563143844274    2.43312520195481
H          -1.01838568621192   -0.67149587213336    3.30407718715943
O           1.04075425520993    2.83746284037633    0.66272345306133
H           0.98696053374376    2.46905242170301   -0.25833475014553
H           1.59982232354329    3.61333196102894    0.59940522100526
O          -1.52606528374631   -1.75780662592735    0.08281017425352
H          -1.13979433833889   -1.61266141528406    0.96338701449403
H          -1.51701720588146   -0.85506887182017   -0.31948490828819
O           1.77307286676802    0.36736830532131    1.51311981210178
H           1.01563396466569   -0.00558219646817    1.99960080321229
H           1.45823254810413   -0.17821419172454    0.08974032584392
H           1.58592555934859    1.31750802243594    1.38558497058355
O          -1.40139648614371    1.72937583440122    1.38125631564552
H          -1.43829184853507    1.38949879753354    0.46417969663107
H          -1.01071680593123    0.31709266714286    2.09063598481871
H          -0.65652233068397    2.34708396815058    1.36732838002934
N          -0.14202306002088   -2.57472959295788   -1.96506273457054
H          -0.02914273955057   -1.59346592881575   -2.46380292568042
H          -0.61953357232471   -3.24586444559904   -2.55856664110571
H           0.78998346443907   -2.89333491498875   -1.71557055644454
H          -0.70071744269262   -2.36505670009109   -1.06452032260766
