    26
        -50.45891855  Gyration_radius:  2.68223151859 Dipole_moment: 5.209
 S           0.28070983207800   -0.96404927518086   -0.40406961547519
O          -1.05074669378384   -1.26774162153164    0.11116184256255
O           0.34380205817258   -1.09114108967373   -1.85960029066548
O           0.49677033765641    0.58950276707034   -0.14886546982592
O           1.32959566590385   -1.67087074493223    0.27959847129463
O           1.51391588542423   -0.27947544713964    3.84702142487534
H           1.83924991225372    0.51766020507669    4.26852199219806
O          -0.07472986114337    2.57674453012299   -1.90354238557841
H           0.75998254113391    2.89972961982983   -2.24749540500857
H           0.15059708227704    1.98220384913941   -1.16106694684738
O          -3.16395340004859   -0.29784202566756   -1.03045485612931
H          -3.79610118396824   -1.01721478668407   -1.06753271213635
H          -2.39234686328320   -0.64771543643787   -0.50991799212740
O           3.23084494774419   -0.87935798625720    1.89509966528919
H           3.73714476568088   -1.68205881897238    2.03319716531057
H           2.54553977018677   -1.12098071864203    1.23017571320090
H           2.18786066807861   -0.52481202730900    3.16962697508842
O          -0.46244885587664    0.37336062104773    2.17682276226701
H          -0.89212609275935   -0.42429223888799    1.83634573297631
H           0.20458545324774    0.08340467664824    2.84522734753793
H           0.18290096310062    0.66143801421356    0.80981496296385
N          -1.41339285637620    0.44973299976625   -2.86831412610894
H          -1.61051224393922    0.32788896349471   -3.85517026466305
H          -1.04240299084907    1.40094025313412   -2.66017821879823
H          -2.25565205467133    0.25391559870074   -2.27000424440274
H          -0.64908678624146   -0.24896986093111   -2.51640151779829
