    26
        -50.45891851  Gyration_radius:  2.68186810727 Dipole_moment: 5.207
 S          -0.97657088509719    0.24818477744969   -0.39864692041615
O          -1.78015019467249    1.15432882871813    0.37610439756080
O          -1.07897658867344    0.46486033621669   -1.84129268994002
O           0.54875279552135    0.55569766441318   -0.07587417912862
O          -1.18095742817759   -1.15267716929273   -0.04318956688837
O          -0.47724852597590    1.04162641321573    3.98087236478769
H           0.28252282835805    1.37882780837249    4.45835255621603
O           2.61133935556808    0.34572737014115   -1.82410527389620
H           1.98558657744381    0.43794371006161   -1.07875057292080
H           2.87068287300496    1.23694351404055   -2.06444568505019
O          -0.01774726964099   -3.04017545328219   -1.38244183444346
H          -0.44056301781418   -2.36229014054867   -0.79033518386383
H          -0.68155763750169   -3.71961382972746   -1.50977899888380
O          -1.17712158969717    2.91568089174156    2.21577073904449
H          -2.02081818531285    3.33826731642370    2.38688367692030
H          -0.76327731082107    1.76642690053152    3.37574908522467
H          -1.34936624242733    2.29347941450696    1.47187423813528
O           0.36644094978594   -0.67591619955912    2.12079416285867
H          -0.38695472691261   -1.12532911035595    1.71184036351648
H           0.62731212087831    0.14115812570148    0.84327100888817
H           0.01026308027593   -0.11372485594332    2.85077045635133
N           0.62094425090024   -1.03997485011797   -2.99248384653843
H           0.48265174001276   -1.95712735510181   -2.49707952063174
H           1.53417619779857   -0.62071930036871   -2.71678142320692
H           0.53571538428029   -1.13367942383533   -3.99823702932625
H          -0.14507855110192   -0.37792538339656   -2.57884033437236
