    26
        -50.46121083  Gyration_radius:  2.41335855595 Dipole_moment: 9.239
 S           0.48559477443929   -0.30336269003484   -1.93025320193057
O           1.25684303898327   -0.93579846480399   -0.70416760859005
O          -0.92873729675589   -0.16982567141043   -1.46911122053618
O           1.04584624045550    1.02626532325330   -2.12153973733073
O           0.60522941250926   -1.22764901913500   -3.00573317256223
O          -0.55798713707551   -0.18471172543587    2.37724097657163
H          -0.79978372661735   -0.39776915370519    3.27932839321014
O           0.71908276366280    2.81203596551264   -0.34295369944911
H           1.08406572688950    3.63142985006912   -0.67910354198949
H           0.85321245502708    2.13569388854315   -1.08337551778981
O          -0.98775036879535   -2.79145472849876   -1.21607687041846
H          -0.30847630918499   -2.99714971753385   -1.86595721760202
H          -1.15610316212293   -1.84424230043287   -1.36857583179263
O           1.76844765915578    0.79668709698956    1.19026343652695
H           1.53735046871535   -0.23923749182491   -0.05616517030899
H           1.53668879950974    1.65266033281165    0.79376420000192
H           1.04689938259501    0.54837785805378    1.78961776063399
O          -0.01265703883582   -2.45642546259246    1.25344629365236
H           0.88273598852260   -2.30239979106530    0.93320398083181
H          -0.40047773953630   -1.07185893049371    1.92477309145386
H          -0.51084753212603   -2.68005198380335    0.43201715670776
N          -1.45669761243427    1.42673695643433    0.40135441864552
H          -2.41271007308337    1.76186959284259    0.38776844590066
H          -1.26838520434954    0.72728761673310   -0.44939040409944
H          -0.77438731194996    2.19338859477030    0.26379664533741
H          -1.24699618759750    0.88950406475501    1.26582840492461
