    26
        -50.45891852  Gyration_radius:  2.6818787223 Dipole_moment: 5.206
 S           0.39036120770461    0.98835149936637   -0.21276104639292
O           1.22683409867975    1.58387652025188    0.79360397608151
O          -0.50841239298251    1.94107008002422   -0.86331430431266
O           1.13388866841911    0.19181669711484   -1.18392638414228
O          -0.59342139186127   -0.02685979775037    0.51314543566751
O           2.60004452371860   -1.26070419868708    2.96838316961571
H           2.26292234543735   -1.83808376798641    3.65531840954614
O          -3.14549105433392   -0.56482250152193   -0.22997994239888
H          -2.24230076519575   -0.50132128453843    0.13849154334556
H          -3.72187147306919   -0.13651557774012    0.40540146555277
O          -0.06282660289333   -0.85822102879018   -3.22706032630502
H           0.51754797581107   -0.71150172645462   -3.97545468203829
H           0.44111231140620   -0.53721202517411   -2.43218748588818
O           1.49273443130772    1.13495961115510    3.35843291251529
H           1.30957021454851    1.31697986997292    2.40792574495347
H           2.23245802437248   -0.36537025347323    3.15936753629828
H           2.10229539496734    1.82354585659236    3.63045689896824
O           1.25836632486880   -1.73202868093878    0.71017266279023
H           0.04247139053145   -0.78894402341046    0.70730681728904
H           1.66420552879745   -1.25480288216418   -0.02765781092829
H           1.83249446782846   -1.58978920459903    1.50131542703754
N          -2.07670247734098    0.63870862837091   -2.38777513305670
H          -1.43253919212015    1.27318305145477   -1.77240183997411
H          -2.62878229284846    1.18249839297977   -3.04128779597254
H          -1.41970042157933   -0.01993925595975   -2.87794863669710
H          -2.67525886417383    0.11112600190234   -1.71756660154865
