    26
        -50.45365677  Gyration_radius:  2.50866355696 Dipole_moment: 4.123
 S           0.80114354114690   -0.32637684259875   -0.81281964479877
O           1.93409728818158    0.18473376065506   -1.73931241206059
O          -0.36247136271985    0.52883318138932   -0.95873296654895
O           0.49656074697204   -1.70671841288587   -1.15794732819890
O           1.34658243239383   -0.23364460777474    0.55443252083318
O          -1.94483819163471    0.73186724792834    2.30656261894655
H          -2.69608170174254    0.47565899671067    1.76682126907599
O           1.86652325878171    2.23177123164045    1.48322036324368
H           2.30261384732171    2.10901652221886    2.32791999427781
H           1.81570143974501    1.34935236740375    1.06853999951364
O          -1.16022827858090   -2.73827584150489    0.51673507266225
H          -0.91257437742938   -3.66232854114390    0.59232032941444
H          -0.58464100276573   -2.36205686614666   -0.20955453595372
O          -0.76773762108145    2.44551707695370    0.83120374363940
H          -0.66014994312575    1.84348870268369    0.06468201944351
H          -1.49247804251319    1.49316323788397    1.79814159497891
H           0.14192186297421    2.61569885459605    1.13700548575110
O          -0.26889615458557   -1.11100897102935    2.24572080896072
H          -0.70196150959544   -1.83874544721737    1.66331868870678
H           0.47277605863209   -0.73339712687899    1.62250083216488
H          -0.99293041117902   -0.32226670021712    2.34060654040971
N           0.21535991656911   -0.19592909289134   -3.65129337350191
H          -0.02462753950197    0.05044838343986   -4.60353101392381
H           0.11827732248966   -1.19745585395561   -3.53627790128498
H           1.50434165874734    0.12880459781898   -2.63429752393793
H          -0.44628322749001    0.23985016294195   -3.01596519181945
