    26
        -50.45365691  Gyration_radius:  2.50913072362 Dipole_moment: 4.123
 S           0.50316426419196    0.50543520152787   -0.94904483550151
O           0.80673859923964   -0.76527991439693   -0.31681986259640
O          -0.00208356065558    1.47264916357199    0.04327821490259
O           1.81040709382025    1.13119715271224   -1.49902709468290
O          -0.44034570629261    0.34516490223612   -2.04509638204140
O          -1.45441377875522   -1.09982697519839    2.51443030546918
H          -1.61188579380468   -1.93583362983562    2.06991396538301
O           1.49654757830204    1.84540113740935    2.24030010739076
H           1.05516490486139    1.80721288388409    1.37032028733168
H           1.08758134410567    2.56761635088123    2.71970610449054
O          -2.74644342651390   -0.40195784797003   -1.18681092747227
H          -1.85057410397936   -0.19669286741847   -1.58138947180588
H          -3.38761361234183    0.01497343741453   -1.76644407212865
O          -2.18835740632866    0.74296947628008    1.00611484084414
H          -1.28956749519034    1.13679586759238    0.66215558797877
H          -2.55777557707916    0.26701394531661    0.17339861345268
H          -1.91562174594828   -0.02716451331445    1.70421197746306
O           1.07479588141461   -0.84315853423899    2.32245348600326
H           1.09827680788405   -0.90907271953513    1.34437950039079
H           1.35648710446282    0.07043282689363    2.51173430288226
H          -0.43897678158881   -0.99871170960281    2.55032362966212
N           1.98908459721411   -1.05635402228524   -2.89061679552977
H           2.11886981986220    0.43030037552774   -2.13353059431573
H           1.14413648683801   -0.93103818266220   -3.43464187535700
H           2.62401183190742   -1.65590956961786   -3.40281110256018
H           1.71839266437553   -1.51616222516961   -2.02648789964896
