    26
        -50.45891856  Gyration_radius:  2.68210468988 Dipole_moment: 5.208
 S          -0.84361428949691    0.54761448390044   -0.40077856805331
O           0.59915670663802    0.43690274094704    0.25615504945789
O          -0.61799325958942    1.34221411428926   -1.60758571149618
O          -1.23989332731763   -0.82111132136859   -0.71703246183984
O          -1.71152932303224    1.18497837286428    0.55190946570831
O          -1.22218983321812   -0.58908091677985    3.91497342089860
H          -0.55544943585357   -0.60665674277883    4.60350725217339
O           2.95953190051520    0.60849384160146   -1.06834408603979
H           2.20039516650144    0.49509003711548   -0.46305032523048
H           3.33953225764448    1.46377187818142   -0.85983264844340
O           0.01404712087786   -2.17357786908704   -2.53578956068761
H          -0.46469667660914   -1.73185945828215   -1.78445436948019
H          -0.66368314019329   -2.62170658901718   -3.04405229556637
O          -1.36360966998075    1.92657266583212    3.03790438576352
H          -1.30858922301910    0.35512033542512    3.64245455752240
H          -1.42684709671683    1.69575916859634    2.08246685230985
H          -2.18435032237400    2.38013764572449    3.23890685396497
O          -0.15372516246443   -1.52522538034645    1.65578360503024
H          -0.60705373702070   -1.25399105570124    2.49047556932986
H          -0.83881101504241   -1.63765331486359    0.98138164697113
H           0.44381869731295   -0.31937223156155    0.90933000056134
N           1.15033328752661    0.16792143247848   -3.01241546377013
H           2.01709296634241    0.28046181896621   -2.44509133115806
H           1.27252657163957    0.50382138882253   -3.96101177520644
H           0.83127660247373   -0.83369409602114   -2.98592459724139
H           0.37432423445208    0.72506903105607   -2.47988547547927
