    26
        -50.45891855  Gyration_radius:  2.68223939918 Dipole_moment: 5.208
 S          -0.64468582088451    0.45666274623516   -0.73990908182224
O          -2.08340304703293    0.22727012377637   -0.61278533974812
O          -0.31092104504565    1.79328638192155   -1.15119186813155
O          -0.09569158260259    0.25273191061181    0.73739161590027
O           0.00106508884757   -0.57375044324450   -1.54720155175831
O           3.39636883158224    2.34799484305137   -0.34626983151062
H           3.92293935262613    2.50771204832034    0.43867460257863
O          -1.25994072786490   -1.25949781708602    2.66422810774035
H          -1.65731532496263   -0.65689322089105    3.29536028975687
H          -0.71086800753137   -0.70805934172372    2.07265097049580
O          -0.54256817049916   -3.07892362164610   -1.17588588183920
H          -0.24336796388765   -2.14219554224570   -1.32357906242395
H          -0.63192863986283   -3.46084531790096   -2.05029695751015
O           2.25105080672510   -0.05380175034953   -0.14268043489121
H           1.81913922320322   -0.29174704029362   -0.97553322765676
H           2.72324553392633    0.80087836633852   -0.29214732215589
H           0.89350572758569    0.15423080547895    0.55162251827303
O           1.10919654617512    3.68447093595527   -0.02967272540387
H           0.52733478194793    2.97146718036980   -0.38060839202528
H           2.58185198972586    2.89526219778735   -0.24480147283171
H           0.98559930475662    4.42335817363086   -0.62839171153756
N          -2.43317675737579   -2.08729270197310    0.38718081094358
H          -2.08619722109267   -1.97857624684474    1.36369554242819
H          -2.37082043075071   -1.09157594216936   -0.06099456301496
H          -1.76302857376035   -2.67702988784706   -0.16855974084878
H          -3.37738388394981   -2.45513684926716    0.35970468699500
