    26
        -50.45365685  Gyration_radius:  2.5087535326 Dipole_moment: 4.124
 S           0.12196105291677   -0.20143264683510   -1.16360605969134
O           0.72049353734451    0.35437698278365   -2.48117893370353
O          -0.60738888257979    0.85332625622626   -0.48375506470864
O          -0.74032122285451   -1.33083295449759   -1.47694014149000
O           1.28255099783201   -0.63169503286512   -0.36156990844203
O          -0.14445124253608    0.33175174973658    3.08409567315746
H          -1.10142248851384    0.39388501116394    3.04331851511298
O           2.96275451067627    1.29367912636134    0.46391994908386
H           3.70012890491336    0.84118324797561    0.87666989975097
H           2.42793084945709    0.60520320564014    0.02447337920174
O          -1.54469154389622   -2.50634065667490    0.66434775297992
H          -1.33298654732189   -2.03707943939240   -0.19311076070895
H          -1.60548034388712   -3.43803959612537    0.44265388942872
O           0.59480977705645    2.17091753175977    1.48108429847710
H           1.53168140145741    2.07147764352673    1.23146235896677
H           0.09760390252310    1.82296982163689    0.71079595987860
H           0.20223301298105    1.11673309500254    2.53054257838784
O           0.56949886010205   -1.67608132688370    1.79270329385905
H           0.96662367949662   -1.26704793018955    0.92318548766000
H           0.29338814758923   -0.83657890277913    2.40451713005091
H          -0.30656992076452   -2.09932162990518    1.46159396060543
N          -1.74732466341101    0.89315633543265   -3.09325898318955
H          -2.34482652183234    1.45735852184492   -3.68459655938711
H          -0.09570246565986    0.65323825389296   -2.96412618309231
H          -1.81338425566414    1.22609431329462   -2.13607971693498
H          -2.08710852543702   -0.06090097012164   -3.09714183525010
