    26
        -50.45365735  Gyration_radius:  2.50912579371 Dipole_moment: 4.130
 S           1.09114632116949    0.36052968242014    0.29969766450840
O           2.58527543386950   -0.04935106161792    0.35239535205882
O           0.28196979640613   -0.69369073836388    0.88310066557538
O           0.92229076547198    1.61925772065076    1.01008148289416
O           0.78323865727065    0.51992415533994   -1.13390017761438
O          -2.83866196983062   -0.78208711865261   -0.99002825736040
H          -3.18008892844849   -0.72170265935564   -0.09499107608474
O           0.88403919476281   -1.69584159127237   -2.64757073675406
H           0.76274055441017   -1.40323854903679   -3.55221922705398
H           1.00573329368388   -0.88931603490742   -2.11103803302137
O          -1.46213321775029    2.53830643747837    0.72214935793125
H          -0.55160871824021    2.18475877798771    0.93736680592673
H          -1.37255794025786    3.49360284009453    0.70406965556565
O          -1.56329847187233    1.29969076278788   -1.48849273208698
H          -2.15312471102231    0.41558639483051   -1.32832244463225
H          -1.65283357309678    1.87010933294651   -0.63819261302163
H          -0.57342221644015    0.98427677333952   -1.44674920047161
O          -0.90910727360307   -2.42825858886337   -0.73421627559809
H          -2.12148419779559   -1.50840861909931   -0.95858839706413
H          -0.31611493688319   -2.40507889715932   -1.50730997125083
H          -0.43759405780955   -1.91020180980977   -0.04802029974840
N           2.20659911646142   -0.18730916500897    2.91981146935513
H           2.72781162873309   -0.16985674745487    1.32904649470568
H           1.34204075368865   -0.65980764846671    2.67351989380539
H           2.56121194215737   -0.57108952539545    3.78703442375930
H           1.97793277496676    0.78919584659463    3.06136615567997
