    26
        -50.46121090  Gyration_radius:  2.41346331167 Dipole_moment: 9.239
 S           1.28846885210473   -1.42508622896923   -0.60194193414064
O           0.27833415854568   -2.21183168192414   -1.29396984184502
O           2.60045418577487   -1.96969044929617   -0.51625337566293
O           1.29761863854801   -0.04373084817107   -1.16959390757694
O           0.77394626931971   -1.25281652251185    0.88278062633736
O          -1.19036333048513    1.81719227541984    1.13073175043148
H          -1.52899524986996    2.55557971415570    1.63842373357304
O           3.07461887994338    0.59098863345353    0.66910845410029
H           3.44028471970314   -0.28924817187397    0.80156581006241
H           2.52376091834342    0.48113510441254   -0.12661634282659
O          -2.04426484161236   -1.25206680491816   -1.67230660270789
H          -1.12593023626672   -1.66172226955172   -1.56000706550350
H          -2.53545313777324   -1.87454764167600   -2.20978863362431
O           1.02093845877130    1.13252457656652    2.29814388433485
H          -0.30305898914563    1.58703791138893    1.55057116054627
H           0.85869844486872    0.20147879768706    2.48484819034739
H           1.83403371022503    1.11243974762553    1.74033682738056
O          -1.81560630355790   -0.90068787597073    1.03695059734444
H          -0.21697887637934   -1.23633493315364    0.92119941286304
H          -1.80688286174835    0.06233337175701    1.15524323787681
H          -2.13099382669224   -1.08080904874788    0.13604803841147
N          -0.88839729302812    1.16258540163065   -1.47477300491066
H          -1.55307006887404    0.40215075328524   -1.70351411404291
H          -0.85994625693857    1.87259285659442   -2.19692371771498
H          -1.09184507041866    1.56887299664703   -0.54015966811047
H           0.10062909664233    0.65166032613662   -1.38010352494195
