    26
        -50.45558035  Gyration_radius:  2.44435039104 Dipole_moment: 2.116
 S           1.19756465841236   -0.08122391743130   -0.73477234968183
O           1.50038653621166   -0.60199205446399   -2.15947934713412
O           1.96343324615181    1.15317264934078   -0.55631893826061
O          -0.24043569585926    0.23944675719829   -0.70177063854025
O           1.53588430973782   -1.10370228058433    0.22939581146131
O          -0.30636643730259    1.48126097049320    2.64420999621552
H           0.19523356356585    1.52326806341185    3.46059266262853
O          -0.99035569446960    2.68937553528722   -1.10949961711408
H          -0.82821561777670    1.71373593275312   -1.03413173169213
H          -0.62787310171737    2.95652642232828   -1.95650939169778
O          -2.02855283846970   -1.56911770376161   -0.04663974683443
H          -1.38237597936610   -0.88728514490432   -0.33979633390031
H          -2.88525403275501   -1.13894953381535   -0.04914370353499
O           0.72013271853299    2.82486506704674    0.77067441914882
H          -0.03357321135455    2.96660292676691    0.09399383750377
H           0.29584371574299    2.29091088932500    1.56136295039567
H           1.34640143295348    2.13915202026885    0.24917931793483
O          -0.31511772587584   -1.04700670557795    2.10763970982911
H           0.45670360319476   -1.12708794995147    1.50743417009096
H          -0.37147460071351    0.50261546166437    2.41562792427258
H          -1.06491079941789   -1.35784271474008    1.57498868215166
N           0.29686385652177   -2.82557187321114   -1.61413046015378
H           0.79960970143542   -2.80963484679074   -0.73154817968360
H           0.40974664976918   -3.73586265853343   -2.04174865745108
H          -0.68502310202491   -2.69098263029015   -1.39673394163985
H           1.04172486487640   -1.50467267182034   -2.14287644431590
