    26
        -50.45365695  Gyration_radius:  2.50894304899 Dipole_moment: 4.123
 S          -0.23671319096918   -0.34574228050981   -1.11096665666178
O          -1.37381238950541   -0.67227805157648   -2.11272663913298
O           1.02881015392344   -0.31346964372097   -1.82837197535256
O          -0.51508675650726    0.92331490943135   -0.46388357769180
O          -0.25727851247199   -1.44596796495721   -0.12884685085609
O           0.69835424825363    0.65443163064387    2.95531917829724
H           1.13141976755540    1.46749080627829    2.68570192156739
O           3.01003421043701   -0.07487843168947   -0.20620310182276
H           3.72883668479225   -0.57581698368147   -0.59772746415523
H           2.27478816086174   -0.08091627936243   -0.88417782771400
O          -2.43957884250526   -1.63792679410812    1.42446916416935
H          -2.33775334071023   -2.44985296673638    1.92357535567370
H          -1.73491727781147   -1.63949650478485    0.74875022452865
O          -1.62835622092259    0.90800615208188    1.94494815643717
H          -2.10473797656963    0.05787391701476    1.92852633150549
H          -0.27307639358949    0.75201957623088    2.65591479557804
H          -1.31392687348771    1.03056365316451    1.02422608328923
O           1.57554853712425   -1.20814527562669    1.55167109496482
H           1.21800013614162   -0.43960568949048    2.21253442800108
H           0.78944994080604   -1.40060262579219    0.89889499065396
H           2.27319060635797   -0.76773286264900    0.93878603767327
N          -0.71192727826959    1.58001180370518   -3.22791439275304
H          -1.33285918180524    0.10859695354609   -2.72706126212579
H          -1.03021754425741    2.31934677676631   -3.84202358529126
H          -0.67003186942985    1.93065337982189   -2.27570747262153
H           0.23184122254856    1.32012278599931   -3.48770693616073
