    26
        -50.45365680  Gyration_radius:  2.50874908066 Dipole_moment: 4.126
 S           0.23661125724290   -0.81971738332079   -0.82472743117112
O           0.64348809633076   -1.21217713284796    0.53759059954374
O           0.19466151165296    0.62570290936182   -0.95007929634723
O           1.33814348352899   -1.38488083146594   -1.75768289874934
O          -1.03821688592430   -1.42421424162896   -1.18032430849133
O          -0.62132649521548    1.94901100518682    2.33622509249991
H          -1.28501580427483    2.39269410457774    1.80329561383825
O           2.90675999850520   -0.12081449176009    1.48487600091743
H           2.18027270506304   -0.61734608813989    1.06196406192827
H           3.07541880851565   -0.55085349161129    2.32473421750426
O          -2.87351449061343   -0.77663569024406    0.50088597840178
H          -2.22170502182942   -0.98843188667761   -0.22747168612459
H          -3.45002394618816   -1.54119546363911    0.56416535434075
O           1.45457972679991    2.09678926862966    0.86387148498435
H           0.25736984097734    2.06793817943996    1.82970892832475
H           2.14812659485288    1.47979951217547    1.16087454912213
H           1.04691843773317    1.65322428195716    0.09013782549310
O          -1.04490566362300   -0.50438888473151    2.23712584951846
H          -0.28994590181603   -0.84746457403232    1.61000638812739
H          -0.86800310324717    0.55006800216731    2.34844741076929
H          -1.88405472108217   -0.60164608830755    1.65180006568856
N          -0.01756294994336   -0.23773934460601   -3.65548965039082
H           0.03115689608219    0.11780463524560   -4.60217088787840
H          -0.86700745155711   -0.77912835150663   -3.55077131341790
H           1.03052547728343   -1.06851620787181   -2.64877977708480
H          -0.08275042924886    0.54211824366416   -3.00821219134920
