    26
        -50.45558061  Gyration_radius:  2.44448747353 Dipole_moment: 2.114
 S           0.00043619572651    0.92272457673529   -1.06119029822896
O           0.75473600434548   -0.00984524026974   -0.20518371219113
O           0.14820386556413    2.27920052366381   -0.53170150796806
O           0.68446271601068    0.89953832985485   -2.44829458837972
O          -1.37942241889965    0.51590613012874   -1.20237656965317
O          -1.13220944425842    0.55940488991562    2.77222316331102
H          -1.94493507408193    0.94369073800366    3.10641306637347
O           2.59490047442996    0.93133772095783    1.36297605606271
H           3.21136093028797    1.41795414156729    0.81218969311861
H           1.98661131230380    0.45298747423493    0.74254603598349
O           0.13701420842375   -2.55980141237507   -0.09477168038846
H           0.72270963642396   -2.96938262427975    0.54409526106229
H           0.41667424810387   -1.61813403158111   -0.15407124012135
O           0.50524190054290    2.27688961404796    1.91228558942580
H           0.29137645263721    2.36804885005541    0.87266816353057
H          -0.17325313951041    1.57972799748255    2.29115852293631
H           1.41085255989109    1.80183680817593    1.89257396172714
O          -1.96960302846097   -0.99028786042025    0.88048459063600
H          -1.39708242442705   -1.74652556159680    0.67366727729281
H          -1.41353538866787   -0.08839603474068    2.05435245366369
H          -1.88950704416015   -0.40581815079083    0.09664214377331
N          -0.31470188268830   -1.43937677126938   -2.91734753902897
H           0.01188781970088   -2.13709864774546   -2.25701813904394
H           0.41893194583743   -0.01758196427133   -2.78613031840701
H          -0.49210465940417   -1.89366217791144   -3.80411318218191
H          -1.18904577565866   -1.07333733755891   -2.55207720330507
