    26
        -50.46195498  Gyration_radius:  2.47282149904 Dipole_moment: 4.180
 S           0.37869619735661   -0.86254128284715   -0.17498894335036
O           0.80762896376894   -1.51147324229737   -1.51587784005885
O           0.40933989797090    0.59862194865836   -0.39574810116034
O          -0.98751183119784   -1.29140549697628    0.07137256112655
O           1.31175528848671   -1.25383026789779    0.86071492976047
O           0.46264514588910    0.27106152073879    2.85443072624390
H           0.82758486039262   -0.08719494839293    3.66559558993257
H           0.84111049766971   -0.26474702307546    2.12576473856314
O           2.91644749251341    1.33975605321706   -0.90798592490936
H           1.99390460266687    1.15132465422004   -0.63911097436731
H           2.86374835805837    1.95371387947550   -1.64204213691024
O          -1.79773184178027    1.71596042031689    0.00468709536655
H          -0.83297334393457    1.40183148286254   -0.16567266248424
H          -2.33199226409855    1.12558538500392   -0.71158272458415
O          -2.04868005873196    0.21709621217394    1.98938856193026
H          -1.22819233907574    0.35924418595531    2.51042278409311
H          -2.00448283863150    1.23648765720673    0.92064052593079
H          -1.82087297618787   -0.53980215789558    1.41059731631455
O           3.29600413693737   -1.31954207101750   -0.95711651492799
H           1.81120443698205   -1.51315967679962   -1.46804145734201
H           3.42086447717870   -0.35007002992063   -1.01538796156134
H           3.00305051890692   -1.47535451520323   -0.04672194601707
N          -2.79086234731162    0.01120063871220   -1.57771377491346
H          -3.75513202602814   -0.28336298997860   -1.49386164655392
H          -2.19137144028712   -0.69988224943743   -1.14243368280161
H          -2.55418156751281    0.07048195319811   -2.55932854731938
