    26
        -50.45677616  Gyration_radius:  2.55930660304 Dipole_moment: 7.416
 S           0.73211807080762   -0.09892907671781   -0.83219833967072
O           1.01716644901871   -0.24509556501068   -2.24189226444360
O           1.60128424133592    0.81303292557758   -0.13203648262377
O          -0.74863098622397    0.44191826646947   -0.72095760869610
O           0.63541703680249   -1.42120180747380   -0.17617717618763
O          -0.68079625528457    2.02416952660558    2.48573065341203
H          -1.54726987935662    2.07542456647860    2.88989035148632
O           2.39161409209248    0.79541086090301    2.47852893581972
H           2.06369144282087    1.65345048858830    2.75920192324463
H           2.28956941444232    0.77800507319659    1.51005332898188
O          -0.54504757973889   -1.75003631498408   -3.62760404605857
H           0.03472380302679   -2.36810300827052   -4.07687993533906
H           0.06215965486340   -1.08158298743336   -3.20130982600343
O          -0.17967945187120    2.81509745556483   -0.01697831602610
H           0.74157928243362    2.52357708596546   -0.09115269745848
H          -0.65944283660469    1.42855753868927   -0.52017581828600
H          -0.40108644524644    2.70999071871641    0.93565006013155
O           0.04393685960387   -0.54168095654962    2.31798567910426
H           0.21871501411622   -0.90987163333068    1.43601845477718
H           0.93179352749712   -0.30159711604146    2.64747051153221
H          -0.46556626676922    1.06160341669963    2.41618673704423
N          -1.54647729707071   -2.11249482088132   -1.24446671941855
H          -2.01992737383821   -2.96042249429145   -0.94954815146865
H          -2.10143459532964   -1.27828742266140   -1.05423129544293
H          -0.59345865576390   -1.93901293687047   -0.71471269879550
H          -1.27495125562458   -2.11192179330912   -2.27639524957889
