    26
        -50.46336471  Gyration_radius:  2.46272490441 Dipole_moment: 4.769
 S          -0.02269443071360   -0.97465190995627    1.06211186683113
O           0.17175420040914   -2.39570672927717    0.97169856675674
O           0.26540264214869   -0.52821778074239    2.53308874978918
O           0.90633311241999   -0.23784857523951    0.19915963200603
O          -1.40239296643362   -0.57075139384565    0.75647613782045
O          -1.22588806031222    1.63433280601402   -2.39002760991498
H          -1.89072788807193    2.17387850660594   -2.82084563505934
O           0.77083611018826   -2.33677553303843   -1.60967379956100
H           0.59585574339978   -2.59015732198173   -0.67678609223429
H           1.43894085739752   -1.64639031035064   -1.54208190974605
O           3.11197984546196   -0.01238199004998    1.80250931095257
H           3.04300913519863   -0.73059026908009    2.43360911506602
H           2.45454881034623   -0.19813084015837    1.11310881292146
O           0.92860343803835    1.91113207759313    1.69570541818829
H           1.83238021785908    2.00306737375109    2.01695150208663
H           1.00142152240686    1.31062832849122    0.92393159958737
H           0.41950306430490    0.44112872677947    2.48689222760905
O          -1.50363297858043    2.05161972679807    0.20573219934202
H          -1.57280072277959    1.11962375964123    0.49517534661580
H          -0.78983823371799    2.43019883306995    0.73047927285176
H          -1.24946607024878    1.88829485428613   -1.43187889444805
N          -1.47583177228847   -0.95669166635587   -1.81971131478516
H          -1.35582531441650    0.01593265061787   -2.20863992146830
H          -2.27135493307620   -1.43234798818776   -2.23216082605002
H          -0.58582949974707   -1.52617647767966   -1.92518244541082
H          -1.59428582919842   -0.84301885770542   -0.76964130974983
