    26
        -50.46147052  Gyration_radius:  2.59178334442 Dipole_moment: 4.223
 S          -0.10345797115153    0.56119019033291    0.48058222563370
O           0.07782911219092    1.95087498965016    0.02622592870647
O          -0.22459476397935    0.43580037110622    1.91305653652930
O          -1.46180434990558    0.12792052992594   -0.18377499654029
O           0.92463109530802   -0.29007005183092   -0.10147607013604
O           2.46448441875526    2.37610782373831   -1.16396269973514
H           3.17779210597370    2.23642794369757   -0.53939116264556
H           1.63764390469601    2.32088266009512   -0.64442786103174
O          -1.21324484318966   -3.29305362350834    1.89567585436991
H          -0.31293727552300   -2.88805955264136    1.92763659242684
H          -1.27040314367489   -3.87724351428561    2.65320498718266
O           1.06075270653454   -1.91218414684088    2.04642180409067
H           0.67983127020607   -1.07455320396340    2.35909832399654
H           1.31043003705245   -1.69226849436518    1.13720471935393
O           1.55468353277348    0.28289810185910   -2.58314760260332
H           1.39297971933542   -0.15624480608261   -1.71480570842295
H           0.23401383465990    0.97400896439296   -2.66387963750431
H           2.13440427946178    1.03273667976840   -2.33747231052052
O          -2.52198244180750   -0.96201155383132    1.84817540074804
H          -1.86920064566931   -0.44733176546847    2.34681080147939
H          -1.99263582010128   -0.34286932285310    0.53891266523540
H          -2.18362177330057   -1.88800616187582    1.84377396976091
N          -0.68297616468439    1.51790970481071   -2.38716612209808
H          -0.44721872976349    1.86499837288633   -1.39490274208884
H          -1.45856072153877    0.86616738369125   -2.27865640233120
H          -0.90683736266177    2.27597247159028   -3.02371647385665
