    26
        -50.45677613  Gyration_radius:  2.55935840128 Dipole_moment: 7.417
 S          -0.67598112455446   -0.03840596687152   -0.88323887370263
O          -1.52438896993091   -0.16107176742767    0.32228129424857
O           0.45554359281439    0.95333879668896   -0.39996245398378
O          -0.05589664146225   -1.28301869997917   -1.26237101241853
O          -1.38982518707156    0.63116757864026   -1.94716291136764
O           2.81580426731950   -1.31831538009629    1.03612281951064
H           3.36785159735117   -0.90496127835114    1.70031556803087
O           0.45221130083693   -3.49711640871127    0.24740699122757
H           1.40644854520751   -3.55034100385270    0.15175615151007
H           0.16079443192076   -2.81959195840571   -0.38878157904954
O          -2.43377997688869    2.92572468898820   -1.42718290459925
H          -1.99518571219422    2.08992982708981   -1.75320082279285
H          -3.35183239796969    2.85049086414600   -1.69445894566882
O           2.43166675053297   -0.28992934525617   -1.40012004548512
H           1.31043436893371    0.60677667151846   -0.81322724428781
H           2.75535921068222   -0.68816898234723   -0.56096424349960
H           1.76380131410102   -0.91092909696297   -1.72800457650894
O           0.29577739125333   -1.37573058718655    1.92094577173785
H          -0.38090775558150   -0.91065533371371    1.40155095531752
H           0.22153551122662   -2.30195572873604    1.61920890802123
H           1.89275655249130   -1.29215851820601    1.38964130705200
N          -1.51321704080551    2.29018653144920    0.93128448177342
H          -1.97274866617533    2.71500240643381    0.06703452719806
H          -1.92074165161858    2.60698856590985    1.80514717337183
H          -1.60483808162838    1.20071986363237    0.77759004986508
H          -0.51064162874682    2.47202426156578    0.88838962440107
