    26
        -50.46195500  Gyration_radius:  2.47314370973 Dipole_moment: 4.187
 S           0.37700360073571   -0.67626150948225    0.56377152161824
O           0.47971878434987   -1.38822079610033   -0.69865778823156
O           1.77444042553667   -0.75877431673436    1.22951704959269
O           0.12650872506280    0.75768714029113    0.30720914132972
O          -0.61175996068836   -1.22546489543767    1.46767235865800
O          -2.83479931496747   -0.62421288158337    0.15750893815211
H          -3.53634484860277   -1.16960012130779    0.51797770128930
H          -2.03900554486376   -0.81188759987258    0.69861258786602
O          -0.27628372708629    1.28451436308554   -2.10953088468633
H          -0.15903092432167    1.21419975640781   -1.08987343831035
H           0.65799226794557    0.88558135111179   -2.44855526981781
O           0.01536215617220    2.04260812627458    2.63802106730081
H          -0.04551601634466    1.62158489086234    1.75598587121907
H           0.52916500804529    2.84302905470038    2.52022108271692
O          -1.63588538267070   -0.81069159995336   -2.20554948307708
H          -0.88998831444934   -1.28034723764961   -1.77787003286006
H          -2.28969976203084   -0.71388667671655   -1.47878512089224
H          -0.95689528822755    0.49892042761132   -2.28661881609082
O           0.82405310489808   -0.34454565482310    3.56734722699397
H           0.56079831346256    0.59562361250871    3.49114500192642
H           0.06007912013855   -0.84132494287732    3.23802519807702
H           1.58243408155849   -0.60631504145815    2.20388442384237
N           1.88507105108598    0.06318644936400   -2.59281969369456
H           1.61060390645061   -0.63922677639625   -1.89586011872133
H           2.75426676406368    0.48586274440400   -2.29458051808350
H           2.03771178474652   -0.40203785622856   -3.47819797611629
