    26
        -50.46336466  Gyration_radius:  2.46267527735 Dipole_moment: 4.772
 S          -1.31284724740877   -0.59427667198487    0.01134617458132
O          -1.72931796798219   -1.58173919968587   -1.12778905326525
O          -0.54777184796322    0.48822039921505   -0.61590065883137
O          -2.50485421920153   -0.10938657132757    0.65108226742207
O          -0.44249821521542   -1.34398176852100    0.92811221692179
O           2.85010787128258    0.62855843888664    1.16960463915187
H           3.69218476238124    0.40452962326930    1.56886376409092
O          -1.75301192173580    0.68679769319225   -3.06434508953278
H          -2.63224168987762    0.32386415895989   -2.94535112867457
H          -1.39066645857129    0.80798418710230   -2.17216003609787
O          -1.38483166634530    2.16267855562923    1.43125431335919
H          -1.99414378894169    1.41631995322888    1.23965896586731
H          -1.03129557797320    2.40188956127220    0.56789052088202
O           2.02914752892957   -1.54467978971156   -0.09243645437011
H           2.60778712270162   -0.14307930521590    0.59607649953119
H           1.13536003861354   -1.61031462078244    0.29994440643297
H           1.89093395251950   -1.54716956310166   -1.04587961285458
O           0.51207162475007   -1.04011250009179   -2.45951079301825
H          -0.94539637422530   -1.64771738968977   -1.71661920488599
H           0.17982473885987   -0.71171695445292   -3.30224104231840
H           0.36338888824851   -0.30200807567658   -1.83134915529906
N           0.49397672061096    0.58139046218463    2.41359200542764
H           0.52031387739232    0.46875410629959    3.42148102126588
H           0.11763875284690   -0.29039927842588    1.93608404908624
H          -0.17896003433369    1.35115543208108    2.12662196872109
H           1.45510112066637    0.74443913732945    2.01196941640223
