    26
        -50.46972952  Gyration_radius:  2.4307960947 Dipole_moment: 5.133
 S          -1.06029967343368   -1.15342808718737   -0.10511321671995
O          -1.40322890209969   -0.13725631854545   -1.12075617149755
O          -2.17524395610077   -1.47371629186982    0.74694749133008
O          -0.36735156002186   -2.27528407336104   -0.69248426322429
O          -0.03342682849308   -0.41376085280467    0.85392611276413
O           1.25345559589890    2.44856390751582    0.56997869661233
H           1.59123479512906    2.31304755251095    1.45731884279978
H           1.65413862219178    1.74726117062877    0.02558521144672
O           2.22985361691592   -2.52350668876787   -0.23331936313395
H           1.26567691638355   -2.52084994118837   -0.42418312148677
H           2.37530056235150   -3.24523495593730    0.37867518045185
O           0.63633537510895   -0.54051911828050   -2.74497420947155
H           0.70241541338797   -1.49985189078814   -2.75339299473772
H          -0.21523882331248   -0.35734640803978   -2.29699354702846
O           2.04823443326119    0.11738219853759   -0.62994464876543
H           2.48292246378455   -0.73522256723249   -0.45023535629087
H           1.63775902613104   -0.00826333701447   -1.52535260804365
H           0.78174117172489   -0.22556979288318    0.31434090143655
O          -2.31385052564351    0.56784910720052    2.33528979067371
H          -1.78587469542183    1.58050453770088    1.20535851689281
H          -2.39120050503980   -0.24403299209643    1.76729346733747
H          -1.65854825445887    0.33721681816822    2.99698112988198
N          -1.41283600496562    2.00011354884163    0.30544852176416
H          -0.40730499887023    2.26676815921715    0.41802664175890
H          -1.97369298699919    2.78682790738787   -0.00373957815987
H          -1.46097026741059    1.18830839828377   -0.39468142658740
