    26
        -50.46336472  Gyration_radius:  2.46269460155 Dipole_moment: 4.772
 S           1.20866636767425    0.32899050610404   -0.71311539813048
O           1.94807140471705   -0.48584330814891   -1.63751738911858
O           0.72873513919102   -0.44381780293599    0.43707927754758
O           2.16308081839313    1.43589529854577   -0.15624963089807
O           0.07745261649041    1.02105092594325   -1.34671882503091
O          -3.10934318269204   -0.32426514358458    0.33379525263142
H          -4.02210797277187   -0.03716867522151    0.27795288465948
O           2.88404713619950   -0.35131667135507    2.12025025301386
H           3.64107885284860   -0.18717806908007    1.55557081057276
H           2.15298088267553   -0.58533363109078    1.52633552793757
O           0.43288177956212   -2.62579655472866   -1.24917430617165
H           1.11677743538997   -1.98061534704689   -1.53393602735891
H           0.48697312269506   -2.61290443910960   -0.28764431653030
O          -1.65281371523835    1.87460226254261    0.51550556448708
H          -1.02740509907634    1.69405263648065   -0.21485149845359
H          -2.57974800605320    0.49118673231906    0.52789520383295
H          -1.10223992996387    2.04755006888579    1.28694810103059
O           0.72223219931519    1.59789487664689    2.07746896749273
H           1.73311557910951    1.76358743411785    0.66426658583450
H           0.51887884258923    0.73218780710939    1.66442453945338
H           1.37184453295796    1.39423917391783    2.75937099993408
N          -1.56460847475464   -0.96356924812188   -1.74128809956985
H          -2.03160095826715   -1.05682396403930   -2.63704673896131
H          -0.95102174001496   -0.09619484389514   -1.71253589672998
H          -2.25276952690853   -0.86256985646191   -0.94886144101572
H          -0.89315809407479   -1.76784016776171   -1.56792439044081
