    26
        -50.46742602  Gyration_radius:  2.40233211854 Dipole_moment: 4.769
 S           1.36653672633645    0.81203335059829   -0.65966356353086
O           1.26913378781005   -0.63700967655501   -0.48499806230987
O           1.79071224399898    1.15213776988881   -2.01566436727690
O          -0.10806696410562    1.36765321684742   -0.62418366606171
O           2.11963265813752    1.43845950137107    0.39932162903682
O          -1.90171766252053   -1.40647420777089    1.01950598698451
H          -2.50197052591209   -2.04447667938828    1.40681460367889
O           1.28347445443681    0.66680448709073    2.73594014804545
H           1.66963649228776    0.93897146904151    1.86200083610583
H           1.74317936392761    1.18759270750362    3.39618459625438
O          -0.94000237062213   -1.40794864645251   -1.60047142701247
H          -1.52870761492597   -1.34672107525351   -0.82919787953305
H          -0.04016563540759   -1.29246942070416   -1.20834338562036
O          -1.17576869268030    1.14631048958133    1.69379189341700
H          -1.59792407831789    0.28037557635936    1.54607735903637
H          -0.38769396367015    0.98486435785562    2.24766837767095
H          -0.51091887217042    1.34780257790231    0.30127637115467
O           0.56827172520207   -1.83839116896645    1.77756308528615
H           0.96744937112111   -1.55310959431389    0.93076342834546
H           0.84040946308808   -1.15135693833608    2.40259915987011
H          -0.98542214022603   -1.66671060357543    1.32164577651726
N          -0.40764492188358    0.60782687975670   -3.16043786485174
H          -1.00760758774018    1.41117545272936   -2.99656972102575
H          -0.75651902264527   -0.22549615068738   -2.56878296537204
H          -0.35714132799029    0.37484930550587   -4.14718271572142
H           0.58883510447007    0.85330703997140   -2.74565764308932
