    26
        -50.46742612  Gyration_radius:  2.40226967156 Dipole_moment: 4.770
 S           0.01145681894466    0.35745418393306   -1.68344471236967
O          -0.68686118008315    1.15249655788477   -0.67346654683385
O          -0.87264659113858    0.02842439257807   -2.79899388753664
O           1.28059278547353    0.93692327083230   -2.05030613049893
O           0.27216711705059   -1.05683756961491   -1.03837707984152
O          -0.09296839607363   -0.30875786059121    2.55486188202709
H          -0.18054255012979   -0.27592869592552    3.50810327392263
O           2.69166680074916    1.52677780311087    0.05098456531481
H           2.15882394923068    1.37086919578672   -0.77286767159581
H           3.55726290312219    1.80805511272830   -0.24913151230958
O          -2.17281080531000   -0.46693297850703    0.70037833358769
H          -1.54368848562387   -0.68520754327513    1.40871255159937
H          -1.73265830441094    0.28252464942440    0.22979497666189
O           0.42440446370721    2.05915566419774    1.56170483968124
H           1.34597048568001    2.09357026423104    1.26797741991937
H          -0.07794680435909    1.91510515013890    0.73418067958051
H           0.05834907748993    0.63273154242395    2.25609602376087
O           1.97124488178708   -0.95596693448739    0.87623959685239
H           2.37717111329693   -0.08149525113161    0.71995890029280
H           1.32667185443750   -0.84188306842455    1.59827789522845
H           0.99142006320704   -1.03675318534437   -0.33025987277054
N          -2.25050648506545   -1.72013934054257   -1.58063215116778
H          -1.71171368974247   -0.96222431086812   -2.18099198756079
H          -1.68920639496650   -2.56691657220286   -1.59196852940278
H          -2.26989334966168   -1.31738635730428   -0.57871908212279
H          -3.18575930760790   -1.88765812905761   -1.93811177442130
