    26
        -50.46742659  Gyration_radius:  2.40215060465 Dipole_moment: 4.776
 S           0.28858696838079    0.62566888154956   -1.57691818558967
O          -1.03819616935707    0.44604970355241   -0.98777737735454
O           1.27214802876804   -0.28977076946786   -0.75281834726205
O           0.35858102357177    0.03114259873348   -2.90956393371446
O           0.74480121853489    1.99108841427083   -1.48428928453468
O          -0.65537056221490   -0.84561576255652    2.34173947145680
H          -1.04587161999410   -1.10373988732011    3.17730223614257
O           0.48101929512583    2.91204596091903    0.93158386077912
H           0.54129714970957    2.61625360222767   -0.01496392395999
H           0.89240829992647    3.77718232258436    0.95963559568805
O          -1.18869055785030   -1.99931784887407   -0.14216592284701
H          -0.87957849710195   -1.86239702235159    0.76947146045155
H          -1.32115385865945   -1.07873684058007   -0.47660197550638
O           1.59944012650126    0.54535388887979    1.64669933208771
H           1.25293164228415    1.45577446388704    1.57648263060284
H           0.89677558357951    0.00768218462367    2.05513880881910
H           1.45990768558388    0.07141043254810    0.17106832632365
O          -1.75665651296253    1.33989933493926    1.40774113505098
H          -1.68576679172525    1.07454149329458    0.46839143315606
H          -1.15617627567303   -0.03592769230265    2.03819731010549
H          -1.13400835161969    2.07673723090104    1.48581208081656
N           0.42063714532964   -2.38994310953222   -2.15132979978595
H           1.38068586816919   -2.56061805473570   -1.86572288220585
H          -0.21133426993347   -2.35634603095672   -1.27613290646824
H           0.38155947743197   -1.36583146750962   -2.56932714210212
H           0.10202395419866   -3.08258601672590   -2.82165199014970
