    26
        -50.46042118  Gyration_radius:  2.39374346163 Dipole_moment: 5.480
 S           1.17871617186359   -0.95845214693131    0.20806830710091
O           1.11711234783513   -0.08769013711287   -1.10539648824909
O          -0.22578804999279   -1.19819941436467    0.58815671180531
O           1.84825865368227   -2.16619910106916   -0.19355167621037
O           1.84660497830877   -0.16488973024022    1.22355658306226
O          -1.94866190637270    1.26301296153647    1.47374679228996
H          -2.09576860898732    2.08330281717493    1.94857346057884
O           1.48545783505011    2.43854888893837    0.67007686276491
H           2.33155358811162    2.88212000536367    0.73871032070811
H           1.65316204688978    1.50726936920623    0.92285972887012
O           0.53037269432885   -2.44795219373655   -2.44764377249325
H           1.02240405528932   -2.47548606737011   -1.58809998824908
H           1.14440306099209   -2.03436528092963   -3.05885246184868
O          -0.68035248637136    1.74514590833348   -0.78803785011729
H          -1.21755006579744    1.52745537934947    0.01800180412223
H          -0.01631110784862    2.36828314153696   -0.45175942465142
H           0.47776297864666    0.66705466725984   -0.96843578772050
O          -0.14243222681282    0.04127007690624    3.02415998349951
H          -0.46230581598675   -0.86386794004627    3.00996571485917
H           0.65786742485970    0.02704670578581    2.46336264641478
H          -1.29353210244024    0.76136362416103    2.01922752049530
N          -1.48425195168551   -0.97368630571435   -1.57379164398925
H          -0.77288852772863   -1.53788273794176   -2.12304845086510
H          -1.08163428481777   -1.08034124281384   -0.54964229579765
H          -1.44700416120898    0.02023202140640   -1.80414376642332
H          -2.42519453970446   -1.34309327880838   -1.65606281989662
