    26
        -50.46742653  Gyration_radius:  2.40217278873 Dipole_moment: 4.776
 S          -1.13844538477287   -0.30999925467638   -1.25283081058768
O          -0.78746401333091    1.02356662140944   -0.76485454180635
O           0.02866201250544   -1.27134568478248   -0.80764252083224
O          -2.37305587409863   -0.79073235649830   -0.68221461127893
O          -1.05380930739160   -0.37746227722607   -2.70972687295645
O           1.60768157044694    0.68554137601965    1.89074492681353
H           2.13695618797747    1.08491739639144    2.58176255032858
O           1.79556073365200    1.22439071532809   -0.84096541384754
H           1.99711450636317    0.91873710325986    0.05977327100339
H           0.81382758097881    1.33759097182207   -0.82710396784083
O          -2.38226232423171   -0.52915077047367    1.90342608874768
H          -2.44024696471390   -0.58975118084059    0.91344512686320
H          -3.17290451897370   -0.95662477917599    2.23616015812734
O          -0.78791117249560    1.74056931346386    1.79226395051627
H           0.73332420411936    1.16931454336910    1.89460513986913
H          -0.87133827114222    1.66830027598665    0.81980139357534
H          -1.43693064841545    1.10499489450762    2.12624185887491
O           0.10557686576845   -1.59884171163003    1.73181371591230
H           0.02266145955379   -1.46005413084176    0.18413746566585
H           0.73920742602151   -0.88357850380644    1.92329498788402
H          -0.77726100771070   -1.26977869757764    1.98907800815867
N           1.47950527187271   -0.38945897606522   -2.85957723840617
H           0.37318264178325   -0.37221101115694   -2.88696602552050
H           1.88275940621571   -0.06162687208521   -3.73172305657804
H           1.74607266354833    0.24705820621589   -2.02872260847320
H           1.75953691646962   -1.34436522093816   -2.65422096420773
