    26
        -50.46042123  Gyration_radius:  2.39379530292 Dipole_moment: 5.478
 S          -0.02372887588377    1.08977552195106   -1.07780613742878
O          -0.47276431007715    1.50021677616834   -2.38089540124136
O           0.86083813903752    2.01045697432425   -0.38727455876737
O          -1.14142397275048    0.69835914219979   -0.19911616727858
O           0.78885536984667   -0.23602064916751   -1.34172074922818
O          -0.46037796148546   -0.27800484306525    2.69697203308843
H           0.01104730083288   -0.23048606169275    3.53089259130210
O           2.70544859172173    0.59856138873365    0.96137031324715
H           3.56631170429307    0.97754282122889    0.78160542341851
H           2.06190278900653    1.16745556033881    0.49075904864847
O          -1.20025173368214   -0.89805406098561   -3.16545579760105
H          -0.41313796164555   -1.16909883849828   -3.64363071662427
H          -1.03273551189830    0.05138058506389   -2.93702336593416
O          -0.48274001061637    2.28520327657347    1.92823899451975
H          -1.37468679794690    2.37215952696126    1.58378633711302
H          -0.51141243261430    0.65554927129043    2.37436076798923
H           0.08735609967613    2.28275433735982    1.13447587856072
O           1.02062757991332   -1.51190293128816    0.89647091336909
H           0.94653606899787   -0.70214593661135   -0.47283369494968
H           1.86741546112521   -1.07511828994103    1.08228720842993
H           0.40390852909336   -1.10487526483840    1.55947541843347
N          -1.45609331199414   -1.74782987300389   -0.67382454357659
H          -0.63906211294725   -2.20724571202775   -0.26924317657725
H          -2.31787445888019   -2.21133000647101   -0.40715687947002
H          -1.42851154869094   -0.69378776553658   -0.34097609053206
H          -1.36544664242251   -1.62351495921591   -1.72373768890525
