    26
        -50.46742660  Gyration_radius:  2.40214460079 Dipole_moment: 4.776
 S           0.20219999699044    0.42098281800343   -1.65627449988380
O          -0.52598917500514    0.10330054101118   -2.88229013071483
O           0.43852297917296   -1.00652877669788   -1.03104322139150
O           1.48265364319680    1.05804938086422   -1.84510885521372
O          -0.64442261588458    1.15241452043012   -0.71392942692887
O          -0.39260960028854   -0.40792950319458    2.51156406184362
H          -0.60619226666215   -0.41324504363226    3.44517390444654
O           2.60261410823530    1.61842453092434    0.43214295044146
H           3.48683404482107    1.94023496077720    0.25020485593763
H           2.18062094716170    1.47496674860693   -0.45578756849301
O          -2.22222328765936   -0.56880302825143    0.41098500146290
H          -1.67544188494994   -0.79146176869276    1.18353704390333
H          -1.75803592613441    0.21288076495550    0.02321000425098
O           1.88650058492119   -0.91740429231481    1.08024552026361
H           1.15541395442316   -0.85427470471200    1.72147119835368
H           1.06465842008131   -0.98719725394519   -0.23927125945876
H           2.27277058698264   -0.02358622569892    1.00421230003967
O           0.14951751063914    2.01267308586205    1.66996880950639
H          -0.24182090122379    0.54876434582154    2.26549610802013
H           1.09784445945026    2.09079330126052    1.49307154578820
H          -0.24224881492581    1.88252697910163    0.78258931630971
N          -1.96932427165546   -1.73909978869976   -1.90111423969192
H          -1.37429694299676   -2.56205939018175   -1.86834749526196
H          -1.39355901110261   -0.93978924033509   -2.40572899993069
H          -2.84500711580484   -1.93053853288566   -2.37771465360992
H          -2.12897940178499   -1.37409442837692   -0.89726226999028
