    26
        -50.45567464  Gyration_radius:  2.46082433791 Dipole_moment: 5.087
 S          -0.63575277053351   -1.56271707147848   -0.97087249582639
O          -0.66258431726289   -2.94495564180226   -0.60166175246675
O          -0.74684764647855   -1.42281888685295   -2.49171702256153
O          -1.89955919018722   -0.85155738026728   -0.44743163745791
O           0.52402451963164   -0.83977195606148   -0.50993549055693
O           0.40878457464597   -0.24043645717771    2.70308665384777
H           0.09117730335764   -0.36658049977927    3.59877066025051
O           2.19210366906983    0.78574238244194    0.77898772707416
H           1.80997096571474    0.08544631087486    0.22238763053595
H           1.80799058267303    0.61837225608549    1.65069448949773
O           0.58100576917299    2.49647984613275   -0.40147351696230
H           0.81431102443946    3.39594072552943   -0.16711894581567
H           1.28504403544275    1.91256453381842   -0.00817105600863
O          -1.25666480557484    1.08222220616693    1.03161233896032
H          -0.67013481436949    0.63815544589054    1.68127131089599
H          -0.66878609186409    1.64453283491017    0.48803382740712
H          -1.67085837920035   -0.04978910624744    0.16366489519821
O           0.63162991925775   -2.70736627489064    1.73099799289895
H           1.53600401515913   -2.83131306864845    1.43432552516822
H           0.47666713797736   -1.14622998728072    2.31039899579589
H           0.07871672978487   -2.88615414006572    0.94496672307830
N          -0.80051374090128    1.13051030597610   -2.63840057279001
H          -0.74134416713211   -0.38891448924780   -2.64659269063271
H          -0.55470369286583    1.54488848267185   -3.52805095749940
H          -1.74848345962610    1.39788990905444   -2.40513181697428
H          -0.18119715028233    1.50585974040218   -1.92264077501434
