    26
        -50.45567462  Gyration_radius:  2.46090939614 Dipole_moment: 5.086
 S           0.93385651474299    0.86277213833059   -1.47396035031514
O           1.18357814976162   -0.64879500375089   -1.64671705303947
O           0.07597793896010    1.06027317746106   -0.33151532425543
O           2.32430133257501    1.42508133098746   -1.16506396445299
O           0.43886310883376    1.42055149616087   -2.69522804468851
O          -2.57161400199847   -0.85699097791518   -0.42893928764577
H          -3.21227852923379   -1.43135734028409   -0.85167529458483
O           0.40886502385884   -0.76178777348556    2.44637145566389
H          -0.34940133203706   -0.14014504219849    2.27336164789445
H           0.21601920835669   -1.19804729970846    3.27756363202091
O          -1.62027389574825    0.73208693156660    1.69368070560182
H          -2.21426479202360    0.14554101021833    1.20521387522256
H          -1.04993089218644    1.10823223224882    1.00124511293257
O          -2.17182526961204    1.09337742994243   -2.19426924814896
H          -2.38712561480565   -0.13363288363781   -1.07861109354433
H          -2.36622120220060    1.92971213673367   -1.76526347398105
H          -1.24951176909035    1.17572828967453   -2.50746231081419
O          -0.14362078468036   -1.94690465221573    0.05451581808492
H           0.12191132572382   -1.58742245172962    0.92488934977158
H          -1.04857577893096   -1.60338527334475   -0.10783057568126
H           0.65343405082096   -1.21221050189381   -0.96123831811989
N           2.82474080247820    0.07143922273059    0.94702651772626
H           3.53378860807054    0.43667018543120    1.56952613780145
H           2.59644228631315    0.94074296509489   -0.27935333841240
H           3.11462603383084   -0.84279608449200    0.62341222159025
H           1.95823946825911   -0.03873327187756    1.47032120334207
