    26
        -50.45567455  Gyration_radius:  2.46100642634 Dipole_moment: 5.083
 S          -1.90077304734164   -0.01912444579197   -0.41791969051647
O          -1.52454415080351    1.46593854097440   -0.24439608172707
O          -0.73169669890146   -0.82363280161906   -0.16087193443841
O          -3.03392920498897   -0.33597472309715    0.39644520938523
O          -2.27232570603627   -0.12621492631865   -1.89963975779486
O           0.73833136711920   -0.00727000564588    2.64298980801327
H           0.79187828980852    0.40417453441560    3.50722165462342
O           2.30231308103725    0.11580000685205   -1.19105824251007
H           3.25438766424353    0.19798061333016   -1.26302992294556
H           2.13238833516551   -0.65260521260960   -0.58117453220349
O           1.66375834634574   -1.70582388287682    0.59497005257668
H           1.65083741487183   -1.24847645224451    1.44710873498979
H           0.74286218768656   -1.64339016335352    0.28802432081431
O           0.86433074078853    1.67079714913945    0.52523236050437
H          -0.54744370053511    1.58626170489147    0.07031640495704
H           0.85775491506100    1.09601626987258    1.32078593433362
H           1.39681497595193    1.19151232336349   -0.14109543975597
O          -1.68895278155354   -1.09597195693966    2.58420683156263
H          -1.59272543561769   -2.03393671197224    2.40476181090057
H          -0.16818100766553   -0.40017971058733    2.58655799990535
H          -2.26885932060334   -0.75849036083780    1.87332458370104
N          -0.05211256028663    0.64530963417011   -2.90930091326012
H           0.70515058963248    0.29172091066832   -2.32763460451139
H           0.13033535629870    0.38589905040044   -3.87004470225910
H          -1.39310320897432    0.14457084563141   -2.39621169474563
H          -0.05649644069999    1.65510977016151   -2.83956818960518
