    26
        -50.46042115  Gyration_radius:  2.39364947374 Dipole_moment: 5.477
 S           1.17595838431451   -0.81395435956040   -0.55346651702002
O           1.67729619542870   -1.67160672607827   -1.59331644229903
O           2.13159022116517   -0.41856698341463    0.46509920037339
O           0.72274449627164    0.49478723793432   -1.30798572329391
O          -0.04625757971811   -1.35088770204566    0.07296558081296
O          -1.39098072966714    0.32522710321211    2.34880589101506
H          -1.37907610952707    0.86189060350617    3.14366889621154
O           1.64613961989231    2.12636626462353    1.17335116275290
H           1.87333511370180    1.19855676172399    0.95694270636207
H           2.47678036073740    2.60324522943409    1.17423458962812
O          -0.27296903915777   -1.18473988877580   -3.28369605862389
H           0.12768757789452   -0.49154968262462   -3.81345511774143
H           0.45916112462723   -1.49439953595508   -2.69231424416754
O          -0.87005921284740    1.82129082722749    0.23955251750596
H           0.16494231236561    1.05065109481261   -0.69404598149849
H          -1.13708577229730    1.23706160308209    0.99641622477175
H          -0.12768258514443    2.33094106272345    0.60228020124370
O           0.79332988693190   -1.18679160278705    2.67007208624351
H           0.47683474736093   -2.04295343943727    2.37238963712161
H           1.38251699895339   -0.88055151392860    1.95301319312875
H          -0.60460627938689   -0.26973944450286    2.42570184397460
N          -1.90580806591159   -0.43242521456636   -1.34352199011741
H          -1.40386289747555   -0.64173828959633   -2.25467546259954
H          -2.83039744101450   -0.84709439490483   -1.30119587868233
H          -1.20905054731136   -0.89058979085124   -0.61750526054038
H          -1.93048078021221    0.56757077066740   -1.13931505460051
