    26
        -50.45971452  Gyration_radius:  2.42844395131 Dipole_moment: 6.566
 S           0.26336898410407    1.36234538334650   -1.73787183822224
O           0.65268686356150    2.30332357656190   -0.55386451274880
O           0.43825418239377    2.07094840686457   -2.95577147764967
O           1.16673894908926    0.18385186139396   -1.61057386595316
O          -1.12152771770211    0.90664834445251   -1.49850977411069
O           1.22413141094574   -0.91402119156273    2.00018843484151
H           1.73000103030880   -1.27391972295243    2.72951704014692
O          -1.00773556574802   -2.06058952459795    0.89019478500417
H          -0.19083230814136   -1.75802232028489    1.32910544278621
H          -1.64547941096120   -1.33446647306218    0.99649478327527
O          -2.41868617225637    0.29927841412161    0.64808625332276
H          -3.29969248358526    0.67161251376468    0.60011066651080
H          -1.95414442957679    0.57650208162443   -0.18855675349373
O           2.79680798257404    0.44100358323821    0.40947154465920
H           2.29706813064286    0.32905682728110   -0.43284808532627
H           2.75692580289136    1.38261477481850    0.59641241823633
H           1.88260136353321   -0.48457432907104    1.38656176295245
O          -0.20501888090873    1.41830938072465    1.74557671311184
H           0.30147908038310    1.96669598909272    0.31696813440729
H          -1.10611566733729    1.10537980929721    1.55530895586146
H           0.30309480592634    0.62422593101519    1.98647349374529
N          -0.58550133543187   -1.61811360598751   -1.66328138875515
H          -0.62539306797649   -2.35145325170239   -2.36120283493169
H           0.33485016945970   -1.04670496167089   -1.67681757407157
H          -1.23973946415205   -0.83368477860567   -1.84293046521361
H          -0.74814225201636   -1.96624673805533   -0.66824184838727
