    26
        -50.45589996  Gyration_radius:  2.51648824952 Dipole_moment: 0.997
 S          -0.41425893754778    0.80542607669904   -0.25320379971667
O          -0.21954383129405    0.15420229229046    1.06931197631654
O          -1.00929168954728    2.18856238729933    0.00794455588932
O           0.86980342567194    0.94910028720469   -0.92645868617089
O          -1.37140559801131    0.05141648825825   -1.04543039149810
O           0.74382972935055   -3.01379313399180   -0.73971138958810
H           1.66841059498315   -3.07435288408306   -0.49313460657447
O          -2.96980983403736   -1.79868208380258   -0.18679325013995
H          -3.16883039490727   -2.34753678093883   -0.94803481484618
H          -2.51458281607574   -0.99023881142363   -0.53511005185459
O           2.33390992752546    1.14630179067715    1.29435601459897
H           1.66271638654932    0.63160971499059    1.75757593745766
H           2.06067653430529    1.07650298412955    0.36119944851347
O          -0.81514343205733   -2.21872452026573    1.10900325042600
H          -1.74576531013800   -2.19321396005056    0.69038028824758
H          -0.18410400754028   -2.60891862328744    0.39725649536571
H          -0.54745655149716   -1.15618957409481    1.16002582413478
O           0.61118374516220   -1.11751318846949   -2.52447210571900
H          -0.32553428587953   -0.95393819328806   -2.67528734459630
H           0.89413614934361   -0.32279335258882   -2.02230280848995
H           0.69803629210601   -2.33842217851919   -1.47683239126782
N           0.80158975702583    3.49186163973412    1.24518464717638
H           1.18852444699690    4.23858006001529    0.68408173744084
H          -0.28886707444166    2.75366848879375    0.51787098560562
H           1.52606283772156    2.77959987915676    1.39332745718748
H           0.51571391623425    3.86748518552905    2.13925303209741
