    26
        -50.45589998  Gyration_radius:  2.51634595073 Dipole_moment: 1.000
 S          -0.64386848583249    0.67507488177146   -0.11915243208301
O          -1.35113803810293    1.77904083626654   -0.90411630208692
O           0.22817650508958   -0.05512736259772   -1.07691663587421
O           0.16907538445764    1.27203474980750    0.93234497001784
O          -1.66191595873736   -0.21700588805467    0.41012284459720
O           0.98288873051492   -2.54359084640699    1.65679565721334
H           1.91382345057495   -2.36180423419106    1.79691129027331
O          -2.30782359496705   -2.54708875839811   -0.52152997076208
H          -2.68984937785759   -3.02754941152384    0.21572771838449
H          -2.22784110907308   -1.60323642386740   -0.23004975443896
O           2.35846742968441    1.60090122518577   -0.55540312812209
H           2.07391814881622    0.85764915329616   -1.10005610695098
H           1.73699617988301    1.57527945613138    0.19516212174855
O           0.22792942130644   -2.48317381412203   -0.77335032533126
H           0.25834910733415   -1.40484014020535   -0.97061738231839
H           0.56355658573801   -2.57712245907089    0.19409190066137
H          -0.77415629392873   -2.67681283257276   -0.75388502869515
O          -0.29775790095530   -0.55669325029185    2.75686956278106
H          -1.22065879321289   -0.65565152950702    2.50108422903533
H           0.48471791697363   -1.82249750884902    2.14008181598098
H          -0.00467669223840    0.21458511093573    2.22483140663067
N           0.48985360837370    3.38278561942898   -1.64374772230460
H           0.53850719912936    3.54025548653955   -2.64125569291110
H           0.43262952017446    4.27565447678984   -1.17293185274861
H          -0.62110460661464    2.45888539150191   -1.22562052228654
H           1.34190168345599    2.90004807196519   -1.33539065050135
