    26
        -50.45567465  Gyration_radius:  2.46073894807 Dipole_moment: 5.087
 S          -0.52600217911216    1.59045033686073   -0.99195938701228
O          -0.79936458322515    1.40236743741965   -2.48687937176632
O          -0.34406774553509    2.97879904925564   -0.69688523424022
O          -1.81255771995750    1.07167420561004   -0.31920712381346
O           0.57310641021868    0.74313642839986   -0.59906094838015
O           0.69168676741948    0.29754896553727    2.63835741094404
H           0.47944632432988    0.50075771339646    3.55087929256060
O           2.14158665000703   -1.02867859170347    0.61990509638505
H           1.86630955446020   -0.77730658896077    1.51236020349701
H           1.79796942950820   -0.30877114053817    0.06319498007428
O           0.22488705824764   -2.56540632011075   -0.31802006732111
H           1.03042978698202   -2.06109767958241   -0.02111387325655
H           0.36578307634699   -3.47681467707791   -0.05748150508072
O           1.12687824961147    2.67261830499889    1.52018009360251
H           0.52827775774673    2.88864869927542    0.77819255859606
H           0.83420357461580    1.16987398876067    2.19337320334696
H           2.00727267343060    2.66645170640821    1.13785346910806
O          -1.27751067967468   -0.86740188087075    1.19539428557658
H          -1.62823569104842    0.27229451465473    0.30975538967639
H          -0.81874889187838   -1.52283853482638    0.63217679830827
H          -0.58097358771941   -0.47623683028302    1.76556791756655
N          -1.18390577296668   -1.12661153927948   -2.49093122963478
H          -2.13076824836777   -1.25990780739968   -2.15893805728014
H          -1.07852299431536   -1.60570329569355   -3.37575301965621
H          -0.93729641323606    0.37076936768024   -2.58576591392211
H          -0.54988280589731   -1.54861583193335   -1.81519495787435
