    26
        -50.45971449  Gyration_radius:  2.42840729883 Dipole_moment: 6.566
 S           0.99127499135810    0.36420191367988   -1.95693026735311
O           1.51814377524334    0.44858759596663   -3.27271334369544
O           0.91220914061115   -1.03346598275704   -1.44581872980222
O           1.96513318984527    1.09954721492093   -0.98244751466172
O          -0.33952447444110    0.98637712017918   -1.79893884084025
O           0.44055826220787   -0.92745655849844    2.29748957812305
H           0.62861897996316   -1.32318051464287    3.14918871125062
O          -1.59701348695606    1.93617240436111    0.24457768805223
H          -1.11130760102429    1.62156569126734   -0.56644665372095
H          -2.02290793909118    2.75784476796646   -0.00151494851885
O          -2.05665635275429   -0.61008638623627    1.20554179012766
H          -2.05925542383530    0.35092063246560    1.05804842875359
H          -1.21720698780570   -0.80232699225266    1.66368853829162
O           2.42451434979541   -1.37147669555416    0.65236373050677
H           1.92683846893283   -1.34950641242495   -0.19830112412061
H           3.01908984691400   -0.61794338323446    0.60958233986282
H           1.18423483560676   -1.19919298221791    1.69114521344208
O           0.86736377235098    1.60748057624896    1.32902221914443
H           0.74702532719538    0.77045657119830    1.81041966368661
H           1.52840793478317    1.30796512938951   -0.11016377340923
H          -0.02856219134881    1.91060130477028    1.10199691724794
N          -1.59077398474081   -1.22224221765022   -1.30494613453080
H          -2.13876275374403   -1.90571516094321   -1.81389882956042
H          -0.52340107819970   -1.40506001587016   -1.33180659000484
H          -1.58245040614624   -0.28226098664690   -1.74333160446947
H          -1.88559021492032   -1.11180663351879   -0.28580645377833
