    26
        -50.45971439  Gyration_radius:  2.42839378592 Dipole_moment: 6.566
 S           1.48231627231821   -0.28519885104594   -1.63253871275812
O           0.47401712329537   -1.35520272480529   -1.38897306984217
O           2.40863553138286   -0.30482945933715   -0.37553519725418
O           2.27763981677659   -0.51974743859931   -2.78515494483310
O           0.77953148055718    1.01463738140338   -1.63868715171095
O          -0.79573778040003   -1.03544536723611    2.15051079723317
H          -1.10221644789297   -1.47576792852754    2.94396491630505
O          -0.16480362990967    2.50449119583918    0.24511744404895
H           0.23598099288901    1.97098636647870   -0.49468841092902
H           0.04822724039243    3.41961568545663    0.06016840732684
O          -2.25194887634094    0.74576268012545    0.65490735360695
H          -1.83623369227564    0.07761671279943    1.23132549347518
H          -1.65551304699669    1.51337857707776    0.67320499949079
O           1.26179100206126    0.73408032481233    1.72446574435830
H           0.80721996586725    1.52154875103202    1.37910750077924
H           0.55660501585676    0.13485974935251    2.02542258793161
H           1.96826160775262    0.11446371609235    0.41537727746296
O           0.89837499135828   -2.57031303338450    0.87981506423168
H          -0.22481752368328   -1.69438358670880    1.66644553285920
H           0.74809708323701   -2.23922646648139   -0.03643211713901
H           1.80701018941664   -2.33221658316792    1.08196458170509
N          -1.59952718248846    0.01126603811271   -1.78006473354178
H          -0.93041461406287    0.75897217490732   -2.04323393059367
H          -2.02642521309273    0.26376219379005   -0.83572181618773
H          -2.28803647433923   -0.19135516862923   -2.49517024804302
H          -0.87803383138951   -0.78175494919507   -1.62559735810139
