    26
        -50.45971437  Gyration_radius:  2.42831750811 Dipole_moment: 6.567
 S          -0.26506347597935   -2.06252960660337   -0.78628702005925
O          -1.49836374065627   -1.25177805394545   -0.71382083466929
O          -0.42352935479468   -3.29951726896719   -1.46510709150002
O           0.81455690141966   -1.21216847391984   -1.36258584347691
O           0.18478197083433   -2.35328319077158    0.68056984678391
O           1.68982981920488    1.48282903486212    1.12890463305977
H           2.36799232115151    2.03323119477415    1.52201121947044
O          -0.50493295311376    2.39626104747329   -0.24140584196316
H          -1.21571205600466    1.98199832359942    0.27674466559015
H           0.32225709092486    2.17656242974938    0.22653796733668
O          -2.27809677638645    0.61114511951541    0.89300687684594
H          -3.19994254704214    0.47318751902516    1.11262249811119
H          -2.02040482006906   -0.13980341868485    0.29120612690759
O           2.72546126880441   -0.79328876421462    0.36271299825873
H           2.15360840037609    0.67151799309031    0.78081733686194
H           2.57780949072209   -1.48285161871101    1.01529531778938
H           2.10427754522595   -1.00430084591180   -0.37306111255449
O          -0.09918041038190   -0.28128123715045    2.23956504990002
H           0.05134984603745   -1.56132499045174    1.27241685831505
H           0.55912545898394    0.39086905375830    1.99098722475089
H          -0.96147619299888    0.08911822747401    1.98402145434304
N          -0.62468698616853    0.66572887321209   -2.21243780141667
H          -0.54953909688782    1.48743857963162   -1.53645422962129
H           0.18141793397465   -0.02516878469025   -1.99795228043946
H          -1.41046451278741    0.06310759692014   -1.90341132948487
H          -0.68107512440146    0.94430127092909   -3.18489667916871
