    26
        -50.46243664  Gyration_radius:  2.53501837635 Dipole_moment: 5.578
 S          -1.00524992736956   -0.04162136368177   -0.49592093082789
O           0.23414483758292   -0.78763132618931   -0.18144228740738
O          -2.18636087538802   -1.01973129493698   -0.24430377634305
O          -1.18778018908884    1.06179056315503    0.42303293367105
O          -1.00289892598739    0.37408897506106   -1.88605278538071
O           0.67018159314501   -1.23449300295690    2.36603680601093
H           0.55628698958108   -1.12001833151513    1.39202612636058
H           0.09033838984716   -1.95746639027783    2.61094274949202
O           0.29941507902010   -1.71060074670729   -2.81849227173849
H          -0.14429367895378   -0.84653522691605   -2.67246979927668
H           0.83166963409920   -1.83276019613368   -2.02534933079732
O           1.41599650791574    1.40607890916010   -0.91501559630995
H           1.15459890613660    0.49740141276253   -0.63985016413332
H           0.69201246716707    1.66506541840201   -1.49726428435493
O          -1.99892643647629   -2.80259647048756   -2.13239922839037
H          -2.14333555370252   -1.75015216816006   -0.92270785441486
H          -2.62403770624511   -2.55300490504498   -2.81634973947495
H          -1.10283079383937   -2.55613777967755   -2.47840640950872
O          -0.14060126704781    1.24649260492793    2.76262544621885
H           0.19690350625819    0.32096478660136    2.83446361875837
H           0.88432806424885    1.97146493668514    2.11628769822456
H          -0.73685266566152    1.20588014862787    1.96953464253453
N           1.65185044128673    2.51031539206418    1.47581844137791
H           1.46510882462621    3.50761502026384    1.47923021142336
H           1.53813996506379    2.12331423139840    0.48773790502859
H           2.59219282378008    2.32227679358578    1.80828786924806
