    26
        -50.45916069  Gyration_radius:  2.55267434952 Dipole_moment: 4.821
 S          -0.80208921197906   -0.22572626208184   -0.90451653079278
O          -0.15178502734697    0.74630716427029   -1.80329075222376
O           0.33125829734455   -0.72057505458116    0.06067797378197
O          -1.84205948722190    0.37482937867241   -0.10374651386032
O          -1.20078228051517   -1.41906212053766   -1.63617670413175
O          -0.34433586434302    0.68046767617808    3.60564807274042
H           0.06392597037027    0.01474405857685    4.16115635897910
O          -0.44599682298144    2.77074586096776   -0.08014415242053
H          -1.30816018058875    2.46453013731385    0.22167751094180
H          -0.27072008315255    2.21947651184917   -0.86468003587290
O           2.56241640834494   -1.74024274438574   -1.06385096231344
H           3.26512669990719   -1.16772653504731   -0.74969041061265
H           1.78197498337423   -1.53361466965505   -0.51068143963221
O           1.09614784552145    1.21931856775965    1.43101984156358
H           0.62472969575103    1.11025660561766    2.29220197445930
H           0.66536787523270    0.08203172039702    0.65479112655122
H           0.63841463693876    1.96032999726375    0.96661107556133
O          -2.33358008024487   -0.55846894848757    2.31343824835768
H          -3.23993327349037   -0.29449089685716    2.48175400223002
H          -2.14723474578683   -0.29115710747703    1.38654904377671
H          -1.10971473758062    0.23755573247611    3.17269051047773
N           0.87026063011129   -1.20794708676864   -3.06071504297690
H          -0.02045084818043   -1.61086048463659   -2.60717412115994
H           0.66835908981379   -0.19750488996532   -2.80381870622146
H           1.69439692552726   -1.52774238582027   -2.50451218209782
H           0.95446358519304   -1.38547423501602   -4.05521818510715
