    26
        -50.45916071  Gyration_radius:  2.55292376095 Dipole_moment: 4.815
 S          -0.04333627771930    0.03565008069484   -1.22948268923220
O          -0.22188976335821   -1.42536804006153   -1.32404946897743
O           0.85985966003476    0.51346391896207   -2.26592055277663
O          -1.30036157088128    0.73965529743970   -1.14328197313508
O           0.73991934111187    0.27157763259768    0.10914945339740
O          -1.63473378069233    1.94579290021631    2.66897577646037
H          -1.01979958439094    2.43887244822678    3.21415958410623
O           3.07581868917283   -1.04064589609044    0.43204431681741
H           2.33717199044182   -0.39905475935091    0.41215471544912
H           2.93844738998626   -1.57383559290382    1.21764544481294
O          -2.41724599166901   -1.41276939266149    0.20364841873527
H          -1.68674395880971   -1.65540327373684   -0.39446424942851
H          -2.73603340821347   -0.57844096014168   -0.15758370852092
O          -1.44775660498362    2.99583568799766    0.21451953548647
H          -1.32067940578615    2.18474260332877   -0.32520088601392
H          -2.20789363931264    3.44165967511137   -0.16349067253893
H          -1.60527007257582    2.36854970862945    1.78020520471235
O          -0.70814208699859   -0.46148750757441    2.00462774130950
H          -1.43290628549267   -0.91647393441000    1.51272823103857
H           0.14390600776904   -0.02490063454537    0.92467685659007
H          -1.10205028551344    0.37623822173529    2.34911742751612
N           2.20968290708508   -1.60470747165102   -2.03101746074114
H           1.23383724093202   -1.92705071338426   -1.76330491483712
H           2.64672015988983   -2.14162087183891   -2.77153921823859
H           1.91606831844797   -0.60716595122131   -2.31382274725000
H           2.78341101152192   -1.54311318537795   -1.16049418473957
