    26
        -50.45916069  Gyration_radius:  2.55290711275 Dipole_moment: 4.815
 S          -0.26984242784752    0.40462532301713   -1.13050933673459
O          -0.20744359797810   -0.95601342327008   -1.69630423685757
O           0.33538177100852    1.36893484074292   -2.03729068590998
O          -1.59310218162534    0.74869255640947   -0.66811336098385
O           0.68933714066354    0.38177339663434    0.11066760877437
O          -1.43828775346510    0.60668678319447    3.33827074045242
H          -0.82981151256838    1.02993254340090    3.94577418896744
O           3.23608616955393   -0.41166767008837   -0.29840129850224
H           2.40659370371508    0.02335554207148   -0.01508996150567
H           3.33611278919114   -1.17923298525287    0.26832358821414
O          -2.05974815292685   -1.90721985620551   -0.01771032155637
H          -1.41838352417462   -1.78319041284333   -0.74123812570531
H          -2.57777626787504   -1.09507476403646   -0.03446790314585
O          -1.88061390657797    2.38045509064475    1.38364723380742
H          -2.76170060403028    2.74092912877352    1.26851375982627
H          -1.64270931497728    1.27972901280594    2.64925812350617
H          -1.71497720842308    1.82618424929564    0.58947083325782
O          -0.24456190399259   -1.20596094042362    1.79413286584803
H          -0.95630662694621   -1.63541565203981    1.26197900209044
H           0.31036690648542   -0.27790908803621    0.83836651854691
H          -0.70864376631378   -0.62616992663425    2.44535423277726
N           2.05084447526049   -0.36097428131886   -2.69181189643516
H           1.20992840216628   -0.95936897695907   -2.44169731995156
H           1.54315480843460    0.58330654397750   -2.58281460577202
H           2.75261863411378   -0.44645229829109   -1.92307640335325
H           2.43348395911640   -0.52995472556506   -3.61523323964577
