    26
        -50.45916070  Gyration_radius:  2.55284709525 Dipole_moment: 4.815
 S          -0.79176445019773    0.68535363000696   -0.64726230729325
O          -0.86004900243702   -0.31215511579908   -1.73157162709876
O           0.62305630951910    0.49430517024472    0.00305767532894
O          -0.76105526997694    2.03578663021785   -1.18923845758752
O          -1.78799697003525    0.45938704273096    0.37231774233864
O           0.18197553514035   -1.03948552395103    3.53077942969765
H           0.95548921752348   -0.70563182555971    3.98765178126948
O           2.77152726452021    0.64258386022681   -1.62324529586399
H           2.12256368565839    0.69884203840294   -0.89297058861678
H           3.19252540115738   -0.21481595036714   -1.53402788503949
O          -1.64657008942647   -2.27202597090553   -0.09023497544858
H          -1.41886010278892   -1.72631410989796   -0.86522204562872
H          -2.19281860661115   -1.68592494017377    0.44484508384103
O          -1.27080210597347    1.11021668372641    2.87512868766715
H          -0.37785216112820   -0.25255885196832    3.33880038336469
H          -1.43039436127279    0.94243291160449    1.92027460625934
H          -2.13863543564177    1.22650679980743    3.26602732079156
O           0.71474324511183   -1.77906842422530    1.02801440527308
H           0.68196533888114   -0.45762644328155    0.44866826826691
H           0.54268751409812   -1.62123642442820    1.98776362007380
H          -0.11535511547634   -2.17319965123416    0.66770989831968
N           0.63118299452181    1.20179255806717   -3.12051673734437
H           0.13839924251750    1.86441869035607   -2.42807284047763
H           0.05816235765962    0.34420229183569   -2.86767699453516
H           0.56801638765872    1.48422697518005   -4.09206202401043
H           1.60985917699949    1.04998793938853   -2.78893711354620
