    26
        -50.45301695  Gyration_radius:  2.45833699646 Dipole_moment: 2.640
 S           1.18248594367419   -0.35416399025400   -0.80988469234773
O           0.20281654117819    0.67774421291027   -0.46397691319647
O           2.41736058108592    0.36983749733436   -1.41597426234835
O           1.65964841082839   -1.02350500407777    0.40084638947333
O           0.64250358367825   -1.27874609629561   -1.78697609993058
O          -1.32680989054849   -1.46649852994611    2.27690960875356
H          -1.38770007615993   -2.29923686108443    2.74817028440896
O           0.27555472788791    2.13005237769565    1.71755630443641
H           0.43325674242728    1.81937540572002    0.79703130120182
H          -0.69677897335263    2.15585956646807    1.77281398205768
O          -2.11524779732075    1.02764422664612    1.00442264833741
H          -1.44509635414213    0.84007707705215    0.32603069318983
H          -2.18660018354891    0.23287065959747    1.54252935830029
O           0.87805657683297   -0.15613142633936    2.56474443141643
H          -0.00658059481343   -0.64961793687329    2.57985637113733
H           1.32350613122035   -0.53063576982226    1.66278626421505
H           0.66457741005143    0.85281776806614    2.33991336472308
O          -1.40696302908259   -1.94351823109066   -0.29745244779714
H          -2.09765534430202   -1.41767744262349   -0.70841025928451
H          -0.60523717095346   -1.81315219408893   -0.85271944993979
H          -1.30808211972055   -1.69754100156604    1.30873159319641
N           0.93720626721499    0.98175592773705   -3.47952291511394
H           2.06421041302927    0.73813094235095   -2.27116942374064
H           0.25251101698166    1.66938964836258   -3.19344524579059
H           1.09429657235181    1.07525181937542   -4.47473176406192
H           0.55476062550910    0.05961736474274   -3.28807913131137
