    26
        -50.46513939  Gyration_radius:  2.39150067651 Dipole_moment: 3.143
 S          -0.69435195923421    0.00505223240131    1.27519309429470
O          -1.27601070158208    0.67088492528057    0.11278660233025
O           0.36512178626443   -0.92611830006432    0.87915096793362
O          -0.04657597396267    1.11176179184137    2.15707191858155
O          -1.71155085948718   -0.69263085613293    2.04587089394894
O           1.98592326521299    1.71350921640597   -1.29379825613983
H           2.53063826416322    2.30516116502678   -1.81475567248256
O           0.96599263730461   -0.92574563938647   -1.72220767876798
H           0.83762880036260   -0.99060709253400   -0.75565749339843
H           1.32926672190151   -0.03928518471454   -1.85401281041934
O          -1.67090867477108   -1.18318742735197   -1.70190262732104
H          -0.72552201456979   -1.18475537701653   -1.98757495597723
H          -1.72840627741731   -0.35911283898546   -1.17026028435467
O           2.35157834961461    0.80960640731085    1.25925799315829
H           2.38596715031273    1.17885592442119    0.35436312343314
H           0.92859499112110    1.11643629486892    1.91813596965134
H           2.04276835054292   -0.10204715509003    1.14252636713861
O          -0.08577781275357    2.98138121407070   -0.24633026039872
H          -0.65024398563101    2.17947145321916   -0.17543098626537
H           0.04334683561093    3.27951281720753    0.65702827691670
H           1.20033678685282    2.23901551485915   -1.00045207025261
N          -1.69147164655857   -2.67807202834459    0.38893283472056
H          -2.38420331642669   -3.41736054971239    0.45770014293764
H          -1.73967917291007   -2.12826606024916   -0.57511956137961
H          -1.81787260329370   -1.92718814656786    1.15040683302654
H          -0.74458893066610   -3.03627229076304    0.49907763908191
