    26
        -50.46513939  Gyration_radius:  2.39148091229 Dipole_moment: 3.141
 S           0.56900205503891   -0.88332019618604   -1.00258429605458
O           1.09535847698929   -0.86900176806750    0.35966183315436
O          -0.24028866752217    0.30793761015086   -1.27169491877944
O           1.64056363298439   -0.99205409609611   -1.97982316465677
O          -0.36263123744726   -2.12468451135029   -1.11747833411538
O          -2.17794853903208   -0.18707677176963    1.94130240743102
H          -2.78550644595723   -0.23812446009701    2.68046776940027
O           2.01113752476834    1.55153643620534    0.79258683077968
H           1.11284616765404    1.91977271544275    0.97433421268503
H           1.85387527921182    0.58279632759573    0.83681050415408
O          -0.61096550915241    1.92705695901831    0.81828646356002
H          -0.55253898360313    1.39723812805707   -0.00079523992035
H          -1.13464452873361    1.37866952168169    1.41847195843053
O          -2.56443215953057   -0.85650437707932   -0.68008957458143
H          -1.29461317891059   -1.78207658739123   -0.96854550189098
H          -2.59705317750523   -0.62256079280762    0.26889830362374
H          -2.06853697912276   -0.13450454978697   -1.09587771177284
O          -0.50565658644552   -2.23634140318468    1.92491029061579
H          -0.76836174765011   -2.96214606294045    1.35413521402150
H           0.20229073665466   -1.76375653940885    1.43268049218166
H          -1.54411435389442   -0.94000863414703    2.04537014487274
N           2.16786909149165    1.53134611191760   -1.77263207778391
H           2.07283148803872    0.47424422933713   -1.95451647074707
H           2.18028706866823    1.63835262593828   -0.66678372277075
H           2.99091846811766    1.92645180452970   -2.21720736811445
H           1.31031208488907    1.95675827044078   -2.11988805372775
