    26
        -50.46513939  Gyration_radius:  2.39152943741 Dipole_moment: 3.142
 S           1.08355603905325   -0.72906146139139   -0.63546490070550
O           0.01440324726358   -1.44566419365764    0.05458399617606
O           1.10912388530316    0.68474245055889   -0.25192544033768
O           2.37802834650097   -1.34058986086578   -0.37923038292082
O           0.77071333833928   -0.80063087494220   -2.15833900491867
O          -2.61296127035333    1.00199354127396   -0.84980030244230
H          -3.52466766069533    1.23306774581982   -1.03253124799415
O          -0.86525042893866    1.46103505679367    1.36853857768578
H          -1.64884744161393    1.35199358222192    0.81241450300609
H          -0.11695905952600    1.28661665211460    0.76471724876576
O           0.10067030387520   -0.69484761012957    2.56750351680170
H          -0.05836993593764   -1.20279822826652    1.74182199054298
H          -0.37610692586606    0.15168239657218    2.38997724742837
O          -0.36206626268351    1.51047822943474   -2.31519013279677
H           0.31314422423279    0.06379678390475   -2.38518664995300
H          -1.24072493072492    1.44808709420288   -1.89056278140521
H           0.25018119993371    1.70354133331892   -1.58850328953768
O          -2.11124192244756   -1.51702844566767   -1.48182432928275
H          -2.52387556246736    0.03496373745786   -1.04028233782342
H          -1.72262406699291   -1.64054790197727   -2.35087808112372
H          -1.36576039378955   -1.61799554239202   -0.84879086816942
N           2.53671797281946   -0.18275043077372    1.92787188065582
H           3.27693126991195   -0.42544821563654    2.57931534593372
H           2.60507824968225   -0.73638602290663    1.00683640086784
H           1.52219752210492   -0.40002663128695    2.32529084655840
H           2.56871025301451    0.80177682621900    1.66963818498976
