    26
        -50.45491401  Gyration_radius:  2.43196512886 Dipole_moment: 6.956
 S           0.98491745552060   -0.82139301966106   -1.45718537271413
O           1.89209548652125   -1.49770323217452   -2.31426637991372
O           1.02032446424192   -1.23625821213006   -0.05638476410742
O           1.11977116086536    0.66623019112306   -1.52621364306934
O          -0.49025121270855   -1.07451456383300   -1.94725917626735
O          -1.30795094236970    1.10369435910380    1.64179944536645
H          -1.60862985619733    1.61251674998541    2.39502071425987
O           2.43690890480525    2.14860728625632    0.25183905518396
H           2.02817377106041    1.63767388484737   -0.47782792581614
H           3.38396696677321    2.03994081717210    0.15376909231288
O          -0.52550995953963   -3.24858292050697    0.70279884626330
H          -0.38216358015477   -3.97673603720304    0.09663950192745
H           0.17602897120357   -2.59078648872600    0.50861031898376
O           1.14189714224253    0.48483676979159    1.95132698692095
H           1.18228207920883   -0.25952763459886    1.31390866397302
H           1.66594422670022    1.19418195927683    1.52890952511643
H          -0.33792476084809    0.85355026063032    1.83595302948401
O          -2.05963700240690   -1.13898362536031    0.12521479922689
H          -1.84927812782213   -0.49717220480399    0.82090788629129
H          -1.07556992989487   -1.14058110148338   -1.14368875831771
H          -1.72907729747831   -2.00000667757658    0.45770018281005
N          -1.16012929044247    1.57023467551431   -0.97575919649333
H          -1.82670406100499    0.93311113567799   -1.40848430425773
H          -1.26257646098257    1.51524412672055    0.07091410770721
H          -0.12549764838474    1.20247425692778   -1.23928994344441
H          -1.29141049890893    2.51994923502895   -1.30895271142398
