    26
        -50.45491378  Gyration_radius:  2.43201359519 Dipole_moment: 6.955
 S          -0.18143808884243    0.09674092214402   -1.92989347452677
O          -0.07353328113499    0.00476765358123   -3.34225711363107
O           0.47442104455259   -0.97354140272399   -1.18155803689505
O           0.28059585162370    1.41511586042702   -1.39652068070885
O          -1.69959546601453    0.04972843638444   -1.51366308257372
O           0.08724696702896    0.03261220731882    2.36878929919771
H           0.37008770688639    0.06506724101690    3.28292215024433
O           2.66612415621457    1.84940550100735   -0.29505695311438
H           3.35445703900476    1.85949397012717   -0.96173891010410
H           1.81936343933491    1.76159098092843   -0.78082410813808
O          -0.90096972120799   -3.17584083577468   -0.65782200005424
H          -1.29135044352382   -3.48295736617825   -1.47727527204822
H          -0.26401130361026   -2.47242866118941   -0.90688171944967
O           2.07538416661978   -0.51908522759379    0.87745393729417
H           0.91071324535741   -0.22661550418842    1.82498171896348
H           1.57994939074307   -0.82895715817101    0.08977079556362
H           2.46297405764759    0.33454164134539    0.59939794615067
O          -1.90056793655856   -1.15770509690149    0.78006697708951
H          -1.76969317872695   -0.45261523203977   -0.65590669096706
H          -1.68105656054567   -2.04722412487630    0.43115590875172
H          -1.19808519032120   -0.95034574649953    1.41551309736619
N          -1.04204292918616    1.78277873614512    0.70907965147831
H          -0.43762236404365    1.65938821252057   -0.23686204571992
H          -1.07367401985883    2.76008135019329    0.98129707601028
H          -1.97600229451865    1.42316393226856    0.51975495557485
H          -0.59167427692017    1.19283971072792    1.45607657424642
