    26
        -50.45301682  Gyration_radius:  2.45746526571 Dipole_moment: 2.642
 S          -1.14127501532840    0.66940764765592   -0.66304864863997
O          -2.44860068769709    0.25483977516506   -1.39490404929150
O          -0.28061157666657   -0.51439235150378   -0.61126634533593
O          -0.50366487932671    1.74566039152303   -1.39527385246098
O          -1.54099938898890    1.06198796809135    0.68882618129733
O           1.48314335999839    0.70763701904188    2.52673432382197
H           1.63754925088711    1.38567599550277    3.18673203502058
O           1.98920797698593   -1.46049896349816    0.65359166794667
H           2.14927135967972   -0.83730070411150    1.36934557750062
H           1.34059434595223   -1.04063883257344    0.06406140002349
O          -0.50663594648346   -2.44699279221723    1.14579720677699
H           0.45692506967591   -2.58933568430337    1.16355364236546
H          -0.63132716987123   -1.90215889157069    0.33562493989130
O           1.61168855262054    1.79649599645990    0.14814864933481
H           0.79881516084658    1.89476584413053   -0.39757932326181
H           1.48864606188297    1.17249573003930    1.64637317484493
H           2.23721363766730    1.31542172572952   -0.39922309960781
O          -0.85142676609633   -0.39204774183930    2.54813045363132
H          -0.75086948935662   -1.33029225100852    2.07559227722403
H           0.08208427197346   -0.01369441916311    2.65764834129600
H          -1.25615693645871    0.23907354090451    1.78027021725505
N          -1.03775834703696    0.01219724692176   -3.58020776882939
H          -1.19577909802911    0.17589994295511   -4.56619009657627
H          -2.13732620284505    0.07270480835098   -2.32289423430434
H          -0.43330167021272   -0.79265091389312   -3.47799014702448
H          -0.55940586376740    0.81573992320418   -3.18185253289024
