    26
        -50.46513935  Gyration_radius:  2.39162302401 Dipole_moment: 3.137
 S           0.97365302809064   -1.06153943337932   -0.18374002572683
O          -0.05722010232079   -1.17049645934706    0.84499997520431
O           0.50505605313435   -1.92443841745100   -1.39118042677181
O           1.11419454191272    0.31991069118804   -0.65102948622009
O           2.25258104098055   -1.55936600361022    0.29798809509351
O          -2.62868267066589    0.62750909499640   -1.11827110700051
H          -3.54030502833097    0.81036795887773   -1.34976030836541
O           0.32250547086259    0.82060959065145    2.51175529721289
H          -0.12337618226498    1.47431459445997    1.92076256899688
H           0.05372399496397   -0.03759005809165    2.11646496535424
O          -0.64237752726083    2.05018935508976    0.37256173675743
H          -1.48301583832741    1.73319299405688    0.01488401275216
H           0.03074863664427    1.49937286553451   -0.07295689287303
O          -2.32911662226920   -1.86028451950594   -0.27113799704118
H          -1.52904351855404   -1.67111240553701    0.26819790079867
H          -2.61126844146288   -0.28867463197823   -0.74449051066523
H          -2.03873202099801   -2.47981898782029   -0.94449779412609
O          -0.51384772394345    0.02223554459734   -2.74013256735184
H           0.07293351395053   -1.28490434616384   -2.03353062822072
H          -1.34702404737894    0.29078317488858   -2.30403949688127
H           0.17832757776886    0.51962900146346   -2.27779493904530
N           2.70552270513790    0.64967716696778    1.56352507137968
H           2.76440464028052    1.32272224999431    0.80159073240033
H           3.49360840769111    0.73007981909282    2.19883790030774
H           1.72650865746354    0.78927848536717    2.06944014673768
H           2.65024146489943   -0.32164733433976    1.10155379729399
