    26
        -50.46521624  Gyration_radius:  2.3844875241 Dipole_moment: 4.702
 S           1.24636129292691   -0.23899890822453   -1.18013221392432
O           1.22339535185409   -0.26636590209105   -2.64193735515635
O           0.55618217919688   -1.60070240251648   -0.76738254835271
O           2.55723172363221   -0.20351220834087   -0.57819801497143
O           0.37181143811159    0.82460287952912   -0.69685211425445
O          -1.83301012565085    0.00566817463678    1.70171829911662
H          -2.51931806902797    0.19374957777749    2.34271183042580
O           2.32147684414117    0.28907048603894    1.96574291939432
H           3.17992188792352    0.12139023141288    2.35808788473819
H           2.44988216840338    0.18015341491796    0.98714675347319
O          -2.06612000075193   -0.90976623485015   -0.90177123750557
H          -2.10534216752374   -0.49810794955331   -0.01763010964722
H          -1.23492388981098   -1.41706194520056   -0.89003355587729
O           0.01414458298617    1.85865097724318    1.68475001299129
H           0.81435664675484    1.53562874162817    2.12011165370684
H           0.17319821848935    1.64855626980034    0.73923556986427
H          -1.19909677570162    0.77709983787582    1.72380549533359
O           0.40155156630806   -1.60873930120035    1.78596624321417
H           1.09063501932661   -0.95766033100718    2.02724255959847
H          -0.45360997060860   -1.15084169016410    1.87503225557649
H           0.57010490097238   -1.68477152926774    0.24116584740568
N          -1.14224129005386    0.63504613827738   -2.80970215393499
H          -1.63603963629041    0.05323785548694   -2.05294704181531
H          -1.62059764868473    0.60516086839408   -3.70457066150345
H          -1.04353224557739    1.58410403598748   -2.45716868993183
H          -0.11642198135141    0.22440892341754   -2.85439160796032
