    26
        -50.46115538  Gyration_radius:  2.63826520107 Dipole_moment: 7.513
 S           0.09166701480289   -0.31328681988269   -0.72276129405907
O           0.64523151510561    0.75320021712915   -1.56550217531262
O          -0.40130316984790   -1.40150613007799   -1.68946629176335
O           1.07292767734415   -0.87139298428807    0.18129611901054
O          -1.08763300067594    0.19503129770663    0.01003588820750
O           0.67123179161866    3.77101030973455    0.92996133930220
H           1.23928770736042    4.52594795163570    0.76763664280924
O           1.54021847852156   -3.46965620271311    0.52680937124914
H           1.44397242597523   -2.49468545732011    0.52037709844931
H           2.20779982859714   -3.67374429049142   -0.13014587576124
O          -2.09877238665209   -1.72951978318276    1.53612696476883
H          -3.04470663202945   -1.57710334423439    1.50319436598209
H          -1.68175217177042   -0.97626118905268    1.06771737547529
O           2.14589680839000    1.63489783784556    0.45983776018959
H           1.26456771802363    2.97699333240278    0.90820536527399
H           2.07743102630211    0.81799958380692    0.96716083671538
H           1.79901005251799    1.37299831162520   -0.41312480156817
O          -1.01895911798209   -3.39941270743765   -0.27208745715244
H          -0.13293618844418   -3.64989856025896    0.06800960009879
H          -1.46875943378171   -2.96164544965677    0.48157409818932
H          -0.68190295964195   -2.24294344429526   -1.16030409446471
N          -0.94766225017898    2.59528072242458   -0.80818150922166
H          -1.67999793916098    3.07975485466220   -1.31413736142906
H          -0.24552474118567    2.10340377017356   -1.42603679459767
H          -0.42563245301264    3.21170455652781   -0.12962819210955
H          -1.28369960019127    1.72283362721467   -0.29656697828168
