    26
        -50.46115531  Gyration_radius:  2.63825227236 Dipole_moment: 7.513
 S           0.31315325725859   -0.43155520041859    0.58797321526312
O           0.35455482449265   -0.63230812624229    2.11100272091222
O          -1.07838051681178   -0.08862506585328    0.22443199899647
O           1.23060227455118    0.62029319102537    0.20902853754733
O           0.67028004265354   -1.72843787865350    0.00093648452333
O          -0.66491214941446   -1.31023399674245   -3.65702200753350
H          -0.32757807903522   -1.86745605366503   -4.36035190170677
O           2.37605380566001    2.33918068426826    1.88876094190969
H           1.99727086921856    1.79600519937127    1.16669520298394
H           3.18466477402378    1.89843568272104    2.15489555927161
O          -1.73714744286503    2.25553341917545    1.28586820852767
H          -1.48338708330937    1.44539255866531    0.79600868922098
H          -2.66213817592620    2.15283069985342    1.51591331280026
O           1.43904851901538   -0.54082793769531   -2.26409305122769
H           0.13117334956499   -0.89703548794360   -3.23457502161459
H           1.52371828160835    0.33332063121757   -1.86642864382920
H           1.35378728665646   -1.12143476722489   -1.48527356496897
O           0.10759639754717    1.65844125553506    3.14719883068556
H          -0.58415966535386    2.04976730673857    2.57246070362467
H           0.24404786429496    0.27616835116107    2.58972892496052
H           0.94844161053239    2.07174723930016    2.85465477350009
N          -1.50973425018323   -2.09558834328844   -1.27083995207566
H          -1.32976640691150   -1.87460214656055   -2.28656363041335
H          -2.24627560660500   -2.77715084558712   -1.12930386157808
H          -0.59155758170533   -2.34747035023866   -0.81250084628477
H          -1.65935618890678   -1.18439002889555   -0.73860561351710
