    26
        -50.45909178  Gyration_radius:  2.5058963745 Dipole_moment: 5.786
 S          -0.97003913613026   -0.49827193667656    0.13484469685888
O          -1.13878937162515    0.08924426194042    1.53760042744889
O          -2.24896522840239   -0.35307829293607   -0.55207293035909
O           0.05841806487022    0.29713383932910   -0.57618600603013
O          -0.53983717254296   -1.88826066087896    0.22190924839366
O           1.52042531879756    2.69489041163254    2.13778299849792
H           1.35770445764045    3.35888821748962    2.80922010502168
O           2.01261969388140   -1.20426530966123    0.60235063889815
H           1.79861328109245   -0.45456268979071    0.03095604603625
H           1.20275979048144   -1.74410924992940    0.57266903067541
O          -0.25540111786567   -2.84824338739590   -2.20181042144992
H          -0.43099076806906   -2.62331550959798   -1.25437619503090
H           0.63897923710475   -3.19489002494326   -2.22485008611114
O          -0.58106972557743    2.66349450586392    0.44983764581083
H          -0.29172173399242    1.86148145706617   -0.02881137896943
H          -1.31810958528254    2.36817718201496    0.99195139932902
H           0.80832373670817    2.79493399247597    1.46681486320418
O           1.06229800562213    0.12607110322165    2.72058451303382
H          -0.23846696235196    0.06878031903371    2.09174463012188
H           1.61554601241399   -0.41021286238074    2.10920914996233
H           1.34226778883987    1.06241410265926    2.59000543899730
N          -1.08592884962140   -0.42240997453451   -2.79292887680211
H          -0.76104491317077   -1.42529807102712   -2.83823533470026
H          -1.37482798083160   -0.03298279843853   -3.68382050563092
H          -1.83881307846434   -0.40208275613992   -2.01139454296353
H          -0.34394975344087    0.11647413165809   -2.30299456422979
