    26
        -50.46041485  Gyration_radius:  2.42293592655 Dipole_moment: 7.832
 S           1.31730804380902    0.03774665187741   -0.22265052964021
O           0.51312927798519   -0.38971325090212    0.92639411986788
O           2.42130251394027   -0.88225782194894   -0.47558504899968
O           0.44826149691448    0.12421050774182   -1.41116656862314
O           1.91105807056137    1.41078673020119    0.06508855230572
O          -0.76382131832184    1.31141616332286    2.74190048525559
H          -0.11487074985994    0.64728466606424    2.46977845605293
O          -1.37760197232958    1.99247170871880   -1.28632178245812
H          -0.69541125327172    1.28577975388074   -1.39581547994838
H          -1.38871308909903    2.48983675301255   -2.10510517167560
O          -0.11648513911153   -2.92962551249106    0.57833472172515
H           0.06261819655893   -1.98633342083882    0.80447315007864
H           0.22597055198321   -3.44675519260791    1.30908114553406
O           0.06426144273172    2.93083915292707    0.81667725120824
H           1.18305739966623    2.08607674129692    0.39017791518260
H          -0.60586960918117    2.76446176420319    0.12565418951411
H          -0.26491514788915    2.48567701126642    1.63924063567387
O          -2.21697079504079    0.16223566611242    0.71042064288994
H          -2.29643940537729    0.80291133414580   -0.00509635457193
H          -1.30364959275126   -0.16123591401287    0.67041021691089
H          -1.59325755995025    1.00623248359147    2.33514827391323
N           0.91078385953602   -2.40072605275294   -1.78281929370918
H           0.41239613479581   -2.87739573935114   -0.98976254707685
H           1.78050370110545   -1.94106691156907   -1.31721217002190
H           1.09321220089300   -2.99764515827649   -2.58201483706976
H           0.39414273169318   -1.52521211360366   -2.00922996230684
