    26
        -50.46042127  Gyration_radius:  2.39366610969 Dipole_moment: 5.473
 S          -1.27391711546337   -0.17022964880556   -0.83607593472251
O          -1.40097788453031    0.12922638265471    0.70720243446880
O          -0.01502742941736   -0.92272064047769   -0.98903597518876
O          -2.42846284354165   -0.97137359409403   -1.14173596618812
O          -1.18308576341662    1.10694082897193   -1.51987195924363
O           2.66880935528910    0.55482731041358   -0.35235510902745
H           3.26629306444878    1.30443663742926   -0.38512797617638
O          -0.14824572174175    2.92471313442118    0.16516484943044
H          -0.53122361289451    2.30907781280182   -0.49330876764510
H          -0.68491048583091    3.71672349964927    0.12237721344740
O          -2.24273470444594   -2.50436069661965    0.98233458477237
H          -2.84946343130214   -2.05320867336866    1.57393845820695
H          -2.35273316687130   -2.03638050985407    0.11595055075594
O           1.26602043270089    0.86908624501002   -2.60968564931097
H           0.36638062658615    1.06993785360924   -2.28503112460091
H           2.13228196820729    0.61439013749572   -1.18107357013406
H           1.21117974286818   -0.03531498091855   -2.92712960684966
O           0.91096778771110    0.88657922984151    1.58636281735659
H          -0.53322685589326    0.49101992278277    1.04358110715538
H           1.59398423510962    0.69005746100281    0.89325561842155
H           0.69110980831748    1.81825694893284    1.42496290144591
N           0.33455938328147   -1.98032349922101    1.26210879938587
H           0.57105350475892   -1.20882937838283    1.88755067339644
H          -0.68103285681862   -2.27334994565306    1.35568870340416
H           0.33463941853529   -1.57148423598907    0.23487599336612
H           0.97776252436322   -2.75769760157803    1.36507694404303
