    26
        -50.46115520  Gyration_radius:  2.63841173793 Dipole_moment: 7.514
 S           0.34431860832914   -0.67942749064242   -0.21954606495486
O           1.02379845997157   -1.42536400866145   -1.37864155276891
O           1.30809999382336    0.16765879909659    0.44780953716383
O          -0.76432465788565    0.11325252643739   -0.79262109471429
O          -0.19854660535652   -1.71805887537508    0.66421690675007
O          -2.80538469394406    0.33013672339835    2.74770086645278
H          -3.11353861988090    0.00300236154714    3.59445602343474
O           3.71224419096629    0.79942783094020   -0.50593979789046
H           4.28017507447892    0.09820673005817   -0.18244194332430
H           2.84828612197786    0.67407494802019   -0.06122555700507
O           0.20453099300272    1.99310561333166   -2.39965274054905
H          -0.16940830338479    1.38169646704716   -1.73098858918394
H          -0.44228522144153    2.04924487409018   -3.10509978823692
O           2.27682428153663    0.31178192236481   -2.71799051979863
H           2.95860921503799    0.57480663190373   -2.06256126725142
H           1.54314112003696   -0.75787618462040   -1.97152860229098
H           1.62836479192525    1.04774318798473   -2.72320503902943
O          -0.19195605365733   -0.02887239645015    2.73275678419633
H          -1.81567571557312    0.34093343394373    2.80624830544864
H          -0.12680781808384   -0.80945594111235    2.15184549569952
H           0.42634194032929    0.58853641541878    2.32540737910508
N          -2.64583435092687   -1.02716171817967    0.47667074378789
H          -1.81896150437830   -1.65267365457202    0.68238620763839
H          -2.90012342112852   -0.50481171531076    1.35712062364359
H          -2.13088870499667   -0.36714440614288   -0.18246425770990
H          -3.43099910082147   -1.50276209451049    0.04728791141408
