    26
        -50.46041465  Gyration_radius:  2.42324889847 Dipole_moment: 7.845
 S          -1.16824172845598   -0.35085265727671    0.54649756314322
O           0.02014724842874    0.32204317421255    1.08006330620544
O          -1.69606864601433   -1.33231297923210    1.48858608246183
O          -2.25728276068972    0.68365514205260    0.29226892668546
O          -0.81698527248140   -1.00860419389169   -0.72586891332561
O           0.72506146656429    2.98852275821364    0.61427433248464
H           0.44245879643155    2.23828678505645    1.15606934209144
O          -0.18531801921196    0.63654380614159   -2.65832846297033
H          -0.43340014556639   -0.02918296027153   -1.97128091030896
H          -0.64118470494129    0.38193438286302   -3.46163849994706
O           1.69696099590651   -1.53801744430516    1.91633009769626
H           1.87263958976770   -1.41337888786779    2.85018174842117
H           1.14538126766940   -0.76920415160707    1.63793141129141
O           1.94896426162421    0.99235003171095   -0.82638268808062
H           1.34289911885498    0.59406469060172   -0.18261141881089
H           1.50606930765323    0.91827088911818   -1.67907567035698
H           1.45242939575588    2.62746400309973    0.07842747993688
O          -1.27513332239181    2.54894225819756   -1.06526905917484
H          -1.90008083708491    1.49047334301029   -0.26708926777314
H          -0.56258574992565    2.89867597595207   -0.47117244377173
H          -0.82414296379968    2.04771798369599   -1.77213668256182
N          -0.05939201892631   -3.05315009397528    0.67924157237987
H           0.80453950505483   -2.72161635342772    1.17724607581240
H          -0.13614918258212   -4.06114648680911    0.59941314960929
H          -0.87634521513043   -2.54748973807859    1.19108222150141
H          -0.12524038655855   -2.54398926725377   -0.22675931263419
