    26
        -50.45424235  Gyration_radius:  2.49853755893 Dipole_moment: 3.416
 S           0.69894654029359    0.65913860186185   -1.09295063623295
O           1.19371699697898    0.88901496977653   -2.52194575245527
O           1.81711352533148    0.70616721710430   -0.18786535281815
O          -0.24896685559625    1.82621282186932   -0.85901970023506
O          -0.05183851420215   -0.57412508542568   -1.02934468540007
O           0.83124295359922    0.63662321239731    2.37814346486851
H           1.40711435840263    0.85250061037999    1.62980742353672
O           2.83732334495606   -1.62973249245157    0.83755646431653
H           3.56385277473223   -1.37534442121580    1.40942174217528
H           2.56962204582157   -0.82276814989840    0.36475014264569
O          -2.42572701453977   -0.80828896542128    1.72647271419852
H          -1.61985650670167   -1.33330634164372    1.60063310518097
H          -2.69288728837317   -0.93575855435360    2.63891383133775
O          -1.35255602253382    1.62521992722636    1.34209877632195
H          -0.77271010623842    1.77437885085821    0.09230083070560
H          -1.89707523090701    0.80500413434755    1.36017268570401
H          -0.55584473329530    1.40586182260603    1.89834034083950
O           0.15027746864232   -1.79008028155147    1.33804718117416
H           0.02658337954208   -1.45039423095333    0.42889143790448
H           1.06494447946245   -2.11641036317935    1.33215746571815
H           0.58679867497469   -0.30039669736300    2.23234269497436
N          -1.12437543700748    0.38396291663632   -3.46830142114201
H          -1.35420055414801   -0.07349305628937   -4.34060952878589
H          -1.24657091962951   -0.26802231623691   -2.69879461399738
H           0.34275175495831    0.74564356530416   -3.08106666584056
H          -1.74767911452529    1.16839230562007   -3.33015197469408
