    26
        -50.46521620  Gyration_radius:  2.38448925728 Dipole_moment: 4.702
 S           1.23560984608980   -0.93260391777713   -0.77911762462909
O           2.48786682811751   -0.84953373377237   -0.06712419992711
O           0.25390255814366   -1.84170126854069    0.06395497158431
O           0.57549293208302    0.36150635256787   -0.91765804045196
O           1.29233290384833   -1.59594484457847   -2.08101900931484
O          -1.88733691421493    1.05107783285685    1.26066276618265
H          -2.55523581979545    1.61041930345393    1.65857758582519
O           2.21259792225578    0.74274883443595    1.97216201233408
H           2.37211172058383    0.19533262864859    1.15922108198284
H           2.99286447849978    0.62754474533683    2.51707128971035
O          -2.15448057004161   -0.86470585520890   -0.72158905908681
H          -2.15844950890728   -0.10594577549257   -0.10760471563998
H          -1.44932174833777   -1.44255365582906   -0.37919137242754
O           0.30326660373443    2.38037761193193    0.73134822659122
H          -1.10894858590036    1.63926752078429    1.04710109272592
H           0.99192750540280    2.15662960381628    1.37158026359830
H           0.46970761998873    1.75309332412884   -0.00503896787098
O          -0.04700789690046   -0.70067775608400    2.33350396396612
H          -0.79165081068492   -0.11820327742980    2.09867939524288
H           0.19139046821337   -1.47465370645748    1.00512787854344
H           0.74744804644441   -0.13137543399617    2.37480207711163
N          -0.81954259353087   -0.48905887419365   -2.94802840210566
H           0.09892638371556   -1.03816186120177   -2.66902821131892
H          -1.46695124843436   -0.59004458531980   -2.09619728722131
H          -0.54571177710041    0.48821319422933   -3.01623566281566
H          -1.24080835327624   -0.83104640630014   -3.80596004259474
