    26
        -50.45909192  Gyration_radius:  2.50589053247 Dipole_moment: 5.783
 S          -0.66659884238229   -0.66774653838469   -0.56389109806796
O           0.23996093854702   -1.77796301797929   -0.82895368049976
O          -2.03636957555792   -1.11118431545396   -0.32791969692659
O          -0.19048532424430    0.09231195517394    0.61575022007024
O          -0.69747278763033    0.28397352753675   -1.76161946878322
O           0.91470565963450    3.55744403149493   -0.80847104775552
H           0.68904350957111    4.33735893700971   -1.31739415336267
O           2.39084005440888   -0.34245277878290   -0.16441287592685
H           1.84549547712411   -1.05898421224279   -0.53504600669459
H           1.79376268280905    0.08660600889917    0.46304072282318
O           0.27003689993719   -3.37431934784906    1.25128040334707
H           1.19663057417643   -3.44863756520912    1.48923722028630
H           0.25416149687909   -2.90409796606990    0.38076143791197
O          -1.37149506335989    2.39852560094239    0.02623569511079
H          -1.80354007922031    2.11249977171822   -0.78359451938615
H          -0.93643258061314    1.59316551593982    0.36987492546616
H           0.07701745457154    3.23172601279077   -0.40923997854320
O           1.55756080973544    1.30655485203154   -2.10012324466210
H           1.44475953332868    2.18489267033206   -1.66652827171182
H           2.10452681619608    0.76868235431266   -1.48450830435459
H           0.25419854712727    0.69368061496164   -1.97248270151865
N          -1.49027600957934   -1.60629285106901    2.08775159831804
H          -0.84773287695465   -2.43867036885271    1.99931571445011
H          -2.10175623803160   -1.63090401126063    2.89659314614816
H          -0.89781991210508   -0.75503971718713    2.01585521933820
H          -1.99272115440256   -1.53112916272464    1.12848873496076
