    26
        -50.45909159  Gyration_radius:  2.50597875792 Dipole_moment: 5.786
 S          -0.10105331268730   -0.85883570763552   -0.67799045602898
O          -1.10025633321686   -1.91753754451549   -0.77417525638122
O           0.14842336266203   -0.21053367849230   -1.95947465334136
O          -0.55249621871853    0.14956344189891    0.30969387166610
O           1.18638988201787   -1.49607551944476   -0.15099697441135
O           2.35155178981445    0.36980228793916    2.91192792103637
H           2.93154863650977   -0.08593862483537    3.52355067890602
O          -2.08089001627822    0.87197566949774   -2.81750360911353
H          -1.22024920987944    0.41656802283542   -2.64183936656005
H          -1.85904285316354    1.78981317690605   -2.98735534457845
O           1.14887019193611    1.97628005009837   -0.80018017252821
H           0.93124926741742    1.31958527724972   -1.48549633212830
H           0.51297123420675    1.78153816836389   -0.09869332893521
O           0.17986578704675   -1.17216507185823    2.49564792322367
H           1.51574133110692   -0.14757556875791    2.88056508853652
H          -0.17573304942328   -0.62139928006206    1.77017924638142
H           0.52389246487009   -1.95568161348816    2.05738093119802
O           2.89573581189295    0.27137822469864    0.29593710455150
H           1.95477747802122   -0.78469673991457   -0.00390968504528
H           2.46957952316926    1.05630517601168   -0.11613788287840
H           2.80550571259584    0.39306110218540    1.27021338217468
N          -2.95974774728549   -0.21832583178947   -0.58977258016082
H          -2.40131529091491   -1.13900268371394   -0.72518833001503
H          -2.88160144450942    0.29077682607363   -1.51054343773317
H          -3.90904056280278   -0.33248962229594   -0.25122730573050
H          -2.31467641440230    0.25361004306251    0.07538856790787
