    26
        -50.45856216  Gyration_radius:  2.57493328316 Dipole_moment: 5.494
 S           0.45271737787338   -0.95357182867359   -0.28780501314641
O           0.71907853852868   -2.06001495158769   -1.17626484769167
O           1.45960019468930   -0.74305976899430    0.73199977037818
O           0.38962711813378    0.31240057843298   -1.19977935269108
O          -0.90778296749974   -1.06285162333347    0.29750747206780
O          -0.61347751615978    2.13784930829604    2.43884810857731
H          -0.17371669439745    2.61170546694189    3.14680953816514
O           3.04964851436976    1.37810771504773    1.02625507646693
H           2.55363664521558    0.53435791876543    1.00254591673066
H           3.81379982842486    1.25244272330132    0.46197315571280
O          -1.00394622712844   -2.52954731837810   -3.03793853092501
H          -1.24718772974398   -3.44996587121594   -2.92221779388692
H          -0.23990270834905   -2.37853432713548   -2.41499620595120
O           0.72461414671416    2.39940598877453    0.15233523337965
H           1.63579287718601    2.25290199104296    0.48218044155055
H           0.52120977448999    1.17769300214757   -0.64298958280220
H           0.15054127705504    2.36168412580942    0.95522216718369
O          -0.18116986456812   -0.45593915900825    2.82386708694335
H          -0.85457215600390   -0.82726338072744    2.23896810794742
H           0.63246681455233   -0.57391024408759    2.30274114188924
H          -0.50064506005330    1.17723736755310    2.64719632762195
N          -2.12283199087284   -0.49546616436239   -1.82536267860230
H          -3.11793520347217   -0.29763554761399   -1.82079464793434
H          -1.70949481922709   -0.75607531695698   -0.82131342039876
H          -1.85872606704609   -1.32249922656220   -2.43693853911788
H          -1.57134412271751    0.31054852248873   -2.12204893146237
