    26
        -50.45424233  Gyration_radius:  2.49855578831 Dipole_moment: 3.415
 S           0.80028200861234   -0.66164719767472   -1.01942015740159
O           1.37066478570929   -0.93852052395485   -2.41143020688762
O           1.88132442955283   -0.53820062542803   -0.07718765174095
O          -0.06582817185790    0.49418759583151   -1.06847491433938
O          -0.04140178825113   -1.89674073170364   -0.73430527285396
O           0.79371639862949   -0.38793984630436    2.44396045159556
H           1.41665618148034   -0.59767554584219    1.73250962347729
O           2.63474408896104    1.95018209442094    0.80958384012832
H           3.36028745233820    1.80738979891067    1.42006786998141
H           2.46275842744335    1.09048597353127    0.38783458474134
O          -2.55734521394683    0.68448938626728    1.58579075411580
H          -1.80117224717953    1.27619520757968    1.44819844931854
H          -2.86907271379639    0.84562073173621    2.47860070023729
O          -0.07321918562105    1.88408300851473    1.21037561930862
H           0.46759077519947    0.50865210822971    2.22329741229952
H           0.80564628103941    2.29712883328325    1.21086794740015
H          -0.12822693112131    1.47215512105369    0.32468603488630
O          -1.24349092175218   -1.65318996652122    1.41016969655622
H          -1.86382180662138   -0.89073240426426    1.35179923158578
H          -0.60423228306329   -1.83100583635171    0.19358267064321
H          -0.49367573005465   -1.31957458496512    1.97476855885675
N          -0.94566507174780   -0.72715694104449   -3.46700355891777
H          -1.18260994079137   -0.35353154609053   -4.37655646014255
H           0.53271541247616   -0.91735719219871   -3.00700783118353
H          -1.15946017234723   -0.04001226025226   -2.74986759069020
H          -1.49716407330375   -1.55728463677196   -3.29483979096469
