    26
        -50.45985131  Gyration_radius:  2.49510915344 Dipole_moment: 7.801
 S          -0.82285190491055   -0.98412021843507    0.47230579554163
O          -0.64131753353948   -1.03736806527540   -0.99200085831298
O          -0.87618192334551   -2.33662028508745    1.02116491349044
O           0.26650803362771   -0.20791977072661    1.06599495683498
O          -2.15369009860005   -0.30932266222019    0.78921085718483
O          -0.58189604718000    3.23539917581081    1.55219543296921
H          -0.54189256630082    2.71084179918567    2.35377499119459
O           2.48836621411521   -1.56070807797822    0.67968899952795
H           1.70846288905411   -0.97626343223777    0.84718000818973
H           2.93493118498252   -1.64827335406557    1.52326286555510
O          -0.39495406395323    1.31648804908948   -2.09055584063665
H          -0.68528765965912    1.24903978188559   -3.00117056597333
H          -0.45491870378707    0.40544246573003   -1.70921628095313
O           1.28619589715147    2.06892128982303    0.05068203516082
H           0.93919722745419    2.04037295457988   -0.84933498989870
H           0.21551352455311    2.98399160416512    1.02889571090771
H           1.01639428499000    1.22067306807865    0.45058016248648
O          -2.19333680129861    2.01431584437612   -0.16672243163137
H          -2.21017973558161    0.65290801418359    0.39829575272819
H          -1.71798550680778    2.57488074291818    0.49591191039336
H          -1.59361370062900    1.94928821497454   -0.93463591394768
N           0.83478972651791   -3.12906728965862   -0.62928061849804
H           0.96504519210944   -4.03221833808025   -1.07101965178107
H           0.41252242735533   -2.40041047339198   -1.24389113252565
H           0.09458054202768   -3.08291451478464    0.16898939145492
H           1.70559908156488   -2.71735652280299   -0.21030552947637
