    26
        -50.46243651  Gyration_radius:  2.53480681778 Dipole_moment: 5.577
 S           0.61824159597116    0.54932319523439    0.75874741943174
O           0.08704066057257    1.84529467615498    1.13748846960361
O           2.15788691132138    0.53321390056935    0.96869405867506
O           0.08692288883331   -0.53417303435620    1.55828371877364
O           0.38682807105225    0.30126342498629   -0.68228815172219
O           0.84272466090060   -2.15013683044526   -1.49515512622704
H           0.67439799905174   -1.20582234039618   -1.26122655528737
H           1.79531734994992   -2.23454572472899   -1.56062796365694
O           0.58343052932380    3.04952739630430   -1.14622754915030
H           0.27427562060158    2.78189295737083   -0.25314818972233
H           0.44782874788553    2.26139208458886   -1.68259263378311
O          -2.11699605281277    0.58211631048619   -0.04964198072279
H          -1.91907972673338    1.14865140697450    0.70540118408732
H          -1.23632935824911    0.48210485428693   -0.47877085142341
O          -0.36128467833500   -2.92290178247808    0.72357962648296
H          -0.06526994665732   -2.10348323755184    1.20037554673820
H          -1.67700336733450   -2.46831275064511    0.48964926559276
H           0.10053246052480   -2.85252129073167   -0.14676529917907
O           3.02140668910895    2.68630162300356   -0.21342520000491
H           3.14392171662827    3.35011461073509    0.46866427372688
H           2.54978979418747    1.32347854476907    0.50232319771975
H           2.18857742846090    2.93569120173692   -0.69053170247672
N          -2.68567911069175   -1.97307305367152    0.32364592310293
H          -2.49084120785959   -0.92823284370188    0.22755814437676
H          -3.28778899120950   -2.13963528027619    1.12316032919444
H          -3.11885066449034   -2.31752803822067   -0.52716997415293
