    26
        -50.46041465  Gyration_radius:  2.4234392215 Dipole_moment: 7.850
 S           0.08060408040284   -0.85351552775180   -1.02446450037998
O           0.51251536169610   -0.86849790938985   -2.41824775610240
O          -0.14434230982557   -2.29644841740401   -0.59082847315920
O           1.08994220726686   -0.24097425445817   -0.15509892487863
O          -1.18336351144001   -0.10482329089409   -0.89439515939974
O           1.63665166196992   -0.99773213042881    2.48294987633531
H           1.83791314294932   -0.89161677861093    1.54254945411541
O           1.76574376888495    2.08120381868996   -1.21319281484159
H           1.58622921161210    1.23557507077081   -0.73807246267486
H           2.70569770055956    2.08523303413357   -1.40050218785047
O          -2.29842382401174   -0.26505092273597    1.46559607425353
H          -1.93183139207703   -0.18601706443528    0.55110753955582
H          -3.23355828534604   -0.44990738206607    1.36930225117440
O           0.06456779382273    1.20476857137965    2.00439153923066
H           1.23632058890974   -0.14668515085768    2.73239857344504
H           0.37300313637839    0.84586729197344    1.15794938121058
H          -0.85904690536819    0.93915249948476    2.07685867317350
O          -0.57457017855426   -2.32403269930639    1.87900141984269
H          -1.24706485782528   -1.61997324466945    1.95886421823437
H          -0.32329917392434   -2.36783445318116    0.43611328596177
H           0.26604480274188   -1.95191885338267    2.25055989301880
N          -0.29113276077780    1.48658278778303   -2.73823854178737
H           0.49772223472863    2.00445881903981   -2.27572400730227
H          -0.98969494111584    1.24148280858694   -2.00591411060093
H          -0.68115771071821    1.95455797010102   -3.54890838056351
H           0.10453014906070    0.48614540764606   -2.90405488002345
