    26
        -50.46041458  Gyration_radius:  2.42333842264 Dipole_moment: 7.844
 S          -1.17466505978675   -0.62161048110974    0.14227116149799
O           0.02552203568753   -1.47837601715019    0.16307272862904
O          -1.89588095756615   -0.80128263677033   -1.18760488290528
O          -2.09221658626133   -1.01932822102215    1.20492203022769
O          -0.76395112413454    0.77882494352621    0.28218269444576
O          -0.23394274542732    2.53809703684618   -1.82889206326615
H          -0.72734180022796    2.21361990807851   -1.06249628609065
O           1.62334607232929   -1.15244978816266   -1.88159920947127
H           1.87726501996000   -2.00681863729425   -2.23301148841021
H           1.04728685919719   -1.33036523963563   -1.09847067515407
O           0.07233052895553    1.13339302817649    2.76136121674549
H          -0.45501677428692    1.81365470324206    3.18295468429240
H          -0.21843140728469    1.10793590312482    1.81920064229140
O          -0.46653040508661    0.17470039457057   -3.00173068737189
H          -0.40242063998602    1.12879834244137   -2.73976120857799
H           0.39892922972874   -0.22755604862810   -2.79330001485835
H          -1.34533220387001   -0.40482755135596   -1.98202280401648
O           1.85523664969442    1.32324056842912   -0.52012246619262
H           0.69618481627587    2.47470248627416   -1.55038723138201
H           1.02211724382769    1.06463519955237   -0.09643823263410
H           2.13218672165291    0.55730301299230   -1.03532148165207
N          -0.17042795446140   -1.48438966022759    2.74935630162075
H          -0.05867308353464   -2.17117871705408    3.48700391270465
H           0.07055523413494   -0.50137766228399    3.03144730651107
H           0.34859786543880   -1.70538312527440    1.87395359617081
H          -1.16472753484016   -1.40396175135728    2.31343247677106
