    26
        -50.45909194  Gyration_radius:  2.50579420372 Dipole_moment: 5.782
 S          -0.96640207389862    0.44321190834838   -0.27953636317517
O          -1.40594108151915    0.94882522475644    1.01498813703935
O          -1.36134678248614    1.31444280548406   -1.38122709659331
O           0.50799794952969    0.29420936955123   -0.28065381627341
O          -1.58308907201480   -0.93184023953098   -0.54453983166472
O           1.12303804087787   -3.55757039572672   -0.47437335143907
H           0.96113188112935   -4.38560721894103   -0.92864196207461
O          -0.31686848331398    3.29774298369452    1.43090496807848
H          -0.85913243358582    2.47597975158249    1.33164285627330
H           0.12623314154503    3.21558748942349    2.27802129019128
O           0.41637046282609   -0.48914053609966    2.33420028495227
H          -0.37059531920692    0.05796974809560    2.16250337234678
H           0.96023410607958   -0.34555237538514    1.54809562655644
O           0.65717751713443   -1.53875761263342   -2.19865576088181
H           1.07480500132358   -2.85026978525692   -1.15602532397466
H          -0.28390501769195   -1.59810145093819   -2.38623398304151
H           0.72911583255339   -0.83457753683183   -1.52417329681447
O          -0.76282457816476   -2.57768363147626    1.14772013008932
H          -1.30428529905979   -1.64356126126853    0.18607804395347
H          -0.04617027026112   -3.03551190360563    0.64872437371826
H          -0.31053629706681   -1.98296361795953    1.78741832401104
N           0.64275019686566    2.79457071139030   -0.96702742275721
H           1.14085660373892    3.40233805450194   -1.60835724756462
H           1.12488171624579    1.89860435097101   -0.75348850610298
H           0.39633750873557    3.24093929788393   -0.04319837237439
H          -0.28983325030594    2.38671585998423   -1.34416508246714
