    26
        -50.45856225  Gyration_radius:  2.57493193592 Dipole_moment: 5.492
 S          -0.62604160111124    0.50787263688010   -0.73950450004157
O           0.83306805230140    0.73572015428396   -0.89710707839676
O          -0.86637876603568    0.54376211128809    0.80283002068298
O          -1.37898475251208    1.61661455335395   -1.27638423219641
O          -1.02314500092203   -0.79089696964476   -1.24292989210927
O           1.87389705313555   -2.63082359624752    0.68599964197079
H           1.85384014379636   -3.58886436191493    0.65620924285680
O          -2.07880324110616   -2.81151841058611    0.14149938771371
H          -3.02567636010707   -2.67246578076949    0.18833572148951
H          -1.73596025945763   -2.13585364450131   -0.47852690631144
O          -0.76611192188535    3.98043446981222   -0.44577938089178
H          -1.13704569617100    3.10967606818563   -0.76036241009284
H          -0.59039068788599    4.48367954464900   -1.24301195371707
O          -0.33001904614354   -1.67910424084661    1.83658546196760
H          -0.63914183084362   -0.37145404455954    1.23455747021673
H          -0.99693344853754   -2.24524549074362    1.39482487617015
H           0.54175036085681   -1.99487361090674    1.49604886719032
O           1.41697086625491   -1.74565692171613   -1.77802560341123
H           1.70100517976635   -0.82710081777123   -1.68169441353584
H           1.77729375790827   -2.33019977948137   -0.25161953069367
H           0.44736863710884   -1.66496683840793   -1.75400474755529
N           0.98342927237782    2.52860476742631    0.85452011285336
H           1.88341059681186    2.86225482833587    1.18337090885804
H           1.05460500307495    1.74727620316653    0.05985637279279
H           0.44299292723334    2.08389126885319    1.59729163130522
H           0.38500075210181    3.28923790191484    0.41702094290585
