    26
        -50.45424239  Gyration_radius:  2.49835870659 Dipole_moment: 3.412
 S           0.74875209391879    0.60827514872582   -1.08962179423499
O           1.09072206342282    1.63369675394678   -2.17185718104158
O           0.40468866260236   -0.64085325517488   -1.88724842052628
O           1.90171983938221    0.39316973662541   -0.25526166991167
O          -0.42458699830855    1.03856216896709   -0.36369800063653
O           1.34032387721665   -1.69742962181230    1.44033189869844
H           1.84439754940863   -1.09750060424959    0.87091129217342
O           2.00685833519111    1.53296001150460    2.24214200446454
H           2.84441759048884    1.26323879992145    2.62325502645237
H           2.03039330529889    1.25307019194860    1.31068491211080
O          -2.27916564313630   -1.61595389427050    1.30704684497210
H          -2.44609543062138   -2.26377851693628    1.99451919808332
H          -1.78546953492824   -0.89324597484724    1.72519552897961
O          -0.41230930398340    0.25281516725111    2.18697511101729
H           0.27823058346852    0.81241678579066    2.57844411644098
H          -0.51072824600038    0.61557972140433    1.28368402966307
H           0.71564385573485   -1.11178532580743    1.91560680969750
O          -0.36662104596194   -2.44621083208955   -0.38813183149250
H           0.33878817221772   -2.38183236800650    0.31241779397309
H          -1.19137913156697   -2.16082466124551    0.06792601758378
H           0.04330398343399   -1.46152992323852   -1.27146312797896
N          -1.33783391153897    1.69767422467921   -2.96122296048757
H          -1.60740252186737    1.52816087721620   -1.99644765416142
H          -1.56066419768822    0.87691897208597   -3.50861489708881
H          -1.85336263037664    2.48877097461665   -3.32371405452597
H           0.18737868428936    1.77563543295731   -2.64185900247797
