    26
        -50.45984977  Gyration_radius:  2.49842872972 Dipole_moment: 7.792
 S           1.25221287901692   -0.45235157052262   -0.30828164246737
O           2.27352186884283   -0.55144150240157   -1.34772577842894
O           1.93294141787808   -0.72525793182164    1.02912838228897
O           0.64578518712995    0.87922919236207   -0.27943296610221
O           0.19909724544260   -1.46255738097076   -0.53306486294763
O          -0.11599740547952    1.93424226514510    3.09962951018676
H           0.63971442670274    2.38341612671200    2.71715124189711
O          -1.77415237755441   -1.30285732610402    1.16641468206682
H          -1.06081157631526   -1.37583681384468    0.48468281090912
H          -2.19063738504883   -2.16436987080747    1.21664595598769
O          -0.30338052869637    1.36373134121495   -2.68203468722836
H           0.03442829675626    2.21390053150285   -2.96836353718069
H          -0.00133033014819    1.25568938673970   -1.74639897863360
O           0.24451786480615   -0.68633867810369    2.89010293271493
H           1.25941769825207   -0.73055694604987    1.82180085919606
H           0.14955047562729    0.26951149103754    3.12803259450630
H          -0.58928872123408   -0.92962577645563    2.44388791326653
O          -1.65495078534240    1.51235277713215    0.96661648014130
H          -0.80635428563251    1.92344121939013    2.39480699561140
H          -0.84417391964920    1.36006550451144    0.44506625893326
H          -2.04475600666897    0.63692492641909    1.08034598878657
N           0.53689612424126   -1.09594830445914   -3.07033844385630
H           0.10954185469332   -0.14720995671063   -3.21582725117795
H           1.48076825258604   -0.90075173826248   -2.56205589788093
H           0.04216116285205   -1.53771204047726   -2.26601618191811
H           0.58527856689512   -1.66968893521243   -3.90477236871794
