    26
        -50.45424221  Gyration_radius:  2.49849198297 Dipole_moment: 3.405
 S          -0.40414445389505   -0.87034331673380   -1.09345151755633
O          -1.06616906215212   -1.27325061850648   -2.41230122939210
O          -0.69153560339637    0.51689689143057   -0.80748299650395
O          -0.82062599921251   -1.77584087503089   -0.05497742091667
O           1.08116859914856   -1.01571121519493   -1.38855740125639
O           0.65765978945887   -1.22480939699749    2.19616623539232
H           0.16059135428046   -1.72796507399024    1.53429166314000
O           1.68434795585659    2.15991885981730    1.42108736425690
H           0.75301363217729    1.95774053357903    1.60185501410164
H           2.08666348576147    2.36520943393873    2.26738905430713
O          -2.70244862007629   -0.96855817455483    1.77687807165495
H          -2.83096113950085   -1.71060753330801    2.37053309216470
H          -2.14935313024276   -1.29816211823956    1.04756295115415
O          -0.82857288987464    1.02789983301761    1.80823964674740
H          -0.82800592441679    0.95248996362577    0.83270857080583
H          -1.66209409313733    0.60083944286208    2.06494810610754
H           0.15682734269406   -0.38852786643849    2.29000139724074
O           2.43164151412062   -0.26496256361295    0.53829587458240
H           1.93656783330659   -0.72755156738208    1.26871827221946
H           1.72018026800979   -0.68180154278401   -0.57325782353758
H           2.26578815044039    0.69246403766121    0.69848382514598
N          -0.15699845852330    0.81321642355829   -3.57256570512077
H           0.82579648739827    0.70762516010958   -3.78679790606898
H          -0.59782994448170    1.36349099485648   -4.29775353754196
H          -0.77559751730871   -0.52086575872111   -3.04954385363737
H          -0.24590960641682    1.29116607702749   -2.68046975747573
