    26
        -50.45424212  Gyration_radius:  2.49862792748 Dipole_moment: 3.409
 S          -1.09527061146810    0.46289340427941   -0.83793749113775
O          -1.20081716767501   -0.97764240600994   -1.31604133646625
O          -2.46630286137582    1.04852075283489   -1.18051543521097
O          -0.90692543891242    0.46837031456930    0.59501078704721
O          -0.07702386195796    1.17897641201573   -1.56053133861828
O           2.31203713492344   -0.12849979746494   -1.18259915224333
H           1.61754158217047    0.39166759065949   -1.61310414544461
O           1.52134372065130   -1.95265487526418    1.84404586975553
H           1.59610815708503   -0.98561855903530    1.85752382745836
H           2.40045970991824   -2.29523795805710    2.01730517339954
O           1.47138369373231    3.02769615472155   -0.24451965632028
H           2.07176051893972    3.38843179251298   -0.89936119806948
H           0.83202416914362    2.48227315099391   -0.73473487991240
O           0.84223399324036   -2.24081875455456   -0.73954585893922
H          -0.32938290355036   -1.58074527112233   -1.07085700737476
H           1.52618951607756   -1.57933048748559   -1.03456777848094
H           0.93937965939330   -2.27315098957506    0.23987152974716
O           1.64799147384795    0.77503773731992    1.30308974358872
H           0.68404465567975    0.68413850074573    1.16225122470006
H           2.30739822526088    0.18379128408288   -0.25447065774189
H           1.81922504826438    1.70502689067335    1.08254904295006
N          -3.59656155823378   -0.41704702481731    0.58008526056052
H          -4.39408225003691   -0.19100057894544    1.15967364239209
H          -2.74408524851703   -0.33726810823572    1.12699574511249
H          -3.68317919938333   -1.37011862143358    0.25282069979477
H          -3.09549012722311    0.53230945662660   -0.55243660054754
