    26
        -50.45424235  Gyration_radius:  2.49824721719 Dipole_moment: 3.408
 S          -0.20455771968859    0.90838870004295   -1.11855089471028
O           0.10579751421517    1.62560401727540   -2.43356387504117
O          -0.53141582226297    1.88202656003184   -0.11008127068935
O          -1.41017616874181    0.04770244390910   -1.46528926470505
O           0.89922054665049    0.04655891166935   -0.76113065626260
O          -1.40932149149826    0.53004572566109    2.11725711514266
H          -1.32570575665573    1.22633807189011    1.44910979351206
O           1.32166970320702    2.52264019199834    1.81396558687482
H           0.90575322593193    3.17790930576169    2.37717872298203
H           0.72648431759687    2.40186711887945    1.05393048204352
O           0.05849400731410   -2.71525323681478    1.46247625917933
H           0.62208446635570   -1.95179364372403    1.66336650101136
H          -0.15683594484435   -3.12244171718713    2.30391293781290
O           1.20338055671435   -0.21187175357527    1.87787548815829
H           1.54130230029943    0.66022293092402    2.13937012853019
H          -0.49059277886046    0.22450397406794    2.26424305541290
H           1.20424718646041   -0.16972757547750    0.90039794502357
O          -2.04071813010272   -1.37791485242245    0.45056339545028
H          -2.00512707067420   -0.69443930365647    1.17452068073037
H          -1.71730852423621   -0.61205449508674   -0.65640319521535
H          -1.29964936612832   -1.99245554719983    0.65763011796971
N           0.83410223520421   -0.56648482362559   -3.52442515386810
H           1.56432702079168   -0.70814538172235   -4.20981107626073
H           0.03124123737538   -1.12901440152799   -3.77329051481273
H           1.16448760491874   -0.85824616149287   -2.60904163042093
H           0.40881687062926    0.85603495137068   -3.04421065785156
