    26
        -50.46094110  Gyration_radius:  2.63262094881 Dipole_moment: 7.521
 S           0.58722666550632   -0.31425873366085   -0.56399605878485
O           0.10392261199064   -0.08201980331132   -1.92755061235790
O          -0.35362570222337   -1.18585745465255    0.16276365264471
O           1.92167325512566   -1.05713298870551   -0.69495895394892
O           0.80372749039872    0.93331174594242    0.15396915698281
O          -3.31094462377689    1.59415247235681   -0.95001603914992
H          -3.87945677883822    2.17944711481414   -1.45240655398745
O           2.68704522940891    1.38391587547847    1.98105040481341
H           3.30203312799626    1.97766246296386    1.54736648883482
H           1.91552222282014    1.30869802722539    1.38251234757652
O           0.51935759010985   -2.14575033261844    2.47761184346374
H           0.37652260519371   -3.09051098085355    2.39958130052464
H           0.12202969979528   -1.74127820502995    1.67679672225931
O          -0.83434355888623    2.43602001539028   -1.26067600856859
H          -0.25189698043061    2.05130160957465   -0.57329877313577
H          -0.53304211780749    1.99399747626518   -2.06205415139980
H          -2.40755624549012    2.00801623761224   -0.96219252920711
O           2.90228547754323   -1.26245231047252    1.62071772901410
H           2.97115260020708   -0.32379790197213    1.90061151372302
H           2.13584083738080   -1.62367226936098    2.11604956800263
H           2.36545821357413   -1.16572619756270    0.23351564751561
N          -2.28357024281013   -0.79444327731812   -1.46118529981918
H          -2.85990961340794    0.06470292102133   -1.26891647715601
H          -1.38761857680732   -0.49790780679329   -1.96777037143597
H          -1.80820981680100   -1.11898268424317   -0.57767793569227
H          -2.80362332976918   -1.52743501208110   -1.92984661069314
