    26
        -50.46094115  Gyration_radius:  2.63256106669 Dipole_moment: 7.520
 S          -0.78112321332477    0.37545619654695   -0.10594757114396
O          -2.06653321813306    0.37302360884040   -0.94110438416289
O          -0.62046472047021   -0.96214582913404    0.49249002748595
O           0.34680240878733    0.70116942188332   -0.96640531337658
O          -0.97023235443239    1.37625978555009    0.94735975123793
O           2.43614958793144    0.77000507012292    2.80781330656194
H           2.93399983518956    1.34443659110700    3.39119578799000
O           0.53068212984015    0.18529622727065   -3.57161082859669
H           0.45917985346329    1.04464004778013   -3.99024802584418
H           0.60265797673656    0.35748154189814   -2.61016442215277
O          -0.73854487339159   -3.00369579982990   -1.19844067806766
H          -1.39612979226113   -3.58269740161483   -0.80936648309771
H          -0.59568416952702   -2.27820298763097   -0.55343657166502
O           1.66006245817475    2.21382122305282    0.74572258322763
H           2.27706853934325    1.29038686948932    1.97634615829687
H           1.38738958266099    1.63627713332131    0.00300700666152
H           0.82358997596600    2.59897701144748    1.02934717663208
O          -1.68565751958790   -1.16424670667323   -2.90500009328450
H          -0.90551480580860   -0.75573354715195   -3.33948028067994
H          -1.33971411430518   -1.96348633716035   -2.45245444628530
H          -1.95894425667021   -0.24619697401117   -1.76338138404345
N          -0.07530803745337   -0.07519652723278    2.82295180364814
H          -0.53709783001175    0.72838133946874    2.28603455192243
H          -0.16260172272024   -0.78797856979347    2.05081381324954
H           0.93663441660178    0.16551923935020    2.98198377271559
H          -0.56066615659554   -0.34155063690751    3.67197475276820
