    26
        -50.46094119  Gyration_radius:  2.6325116997 Dipole_moment: 7.521
 S           0.01163782046578   -0.78981835840354    0.37249666340752
O          -0.77449377582442    0.33056661153034    0.92006430238751
O          -0.85887787447358   -1.68582631597546   -0.39308091080799
O           1.12622080989931   -0.30341435573987   -0.42742962923729
O           0.55614031868375   -1.60973935324612    1.54764644497061
O          -2.06825470725499    0.95775877821744   -3.03493792949060
H          -2.42514385172930    0.83464496029670   -3.91564051610938
O           0.45890022794318    1.82862291515574    2.73006066606815
H          -0.00142213571229    1.36087221682394    2.00064180611066
H          -0.15386313515040    1.84449144886129    3.46714693751583
O           3.57671493593614    0.23432889634656    0.46315121063707
H           4.12153049128230   -0.46407602265143    0.09673590004607
H           2.69709649084012    0.14026059581072    0.04287873938543
O           0.01998256844637   -0.63012812599493   -2.79653575593413
H           0.57404805100329   -0.35807653181521   -2.03584941967729
H          -0.35235743479056   -1.46645258835101   -2.49595222432426
H          -1.20624702628074    0.46378425236360   -3.01394679472364
O           2.24437383199568   -0.17253035741003    2.75179157455820
H           1.73333575977438    0.65705965273298    2.86946220717586
H           1.25687770614387   -1.06023938436599    2.07487771172939
H           2.89375194763932    0.02307098200666    2.04168837025962
N          -2.74535637046521   -0.01463735270452   -0.66466234838866
H          -2.17681710669154   -0.92230535401491   -0.67554690261581
H          -2.14925426793916    0.48004295783678    0.05080662523960
H          -2.64934511462623    0.45243051090169   -1.60267476087546
H          -3.70917816913207   -0.13069070820537   -0.37319197729505
