    26
        -50.46094128  Gyration_radius:  2.63223736586 Dipole_moment: 7.520
 S          -0.63260473817120   -0.56516145637340   -0.20775738752400
O          -0.01878893460644   -1.83442083303302   -0.60682272790272
O          -0.25415335311324    0.52289227856458   -1.09742354114422
O          -2.14958147161081   -0.77185040225590   -0.28295367223638
O          -0.28082809267535   -0.25239166310597    1.18915503800896
O           3.71572024311326   -0.76980819254080   -0.01633486084920
H           4.52766519692559   -1.12237288545631   -0.38317119775935
O          -1.78388834076029    2.59120853960936   -1.78232142197616
H          -1.11280768082233    1.91914332672726   -1.54330777689931
H          -2.00504912033323    2.42999851003845   -2.70097615863147
O          -1.63673857691331    1.74077691730459    2.29826412572511
H          -1.96555952969013    1.36452644469384    3.11639753398199
H          -1.04935593314419    1.06267821508252    1.90090209914112
O           1.99029334688916   -0.52881141444202   -1.99230185193621
H           3.13273132105552   -0.55335835897299   -0.79135312518678
H           1.55757244470942   -1.38875826612579   -2.03362824014474
H           1.25582620000351    0.06697927838444   -1.73711062984599
O          -3.23672227913907    1.46039098876931    0.16422012360971
H          -2.77203303945937    1.73392882911542    0.98425016514438
H          -2.85715444983146    2.02125374612222   -0.54674409407733
H          -2.64259316909027    0.12081301372578   -0.10592059577072
N           1.68304184308237   -1.88081507795333    1.27084891609049
H           2.59379949018632   -1.49710324731806    0.90990527346071
H           1.80386474179083   -2.60881781627657    1.96563474970669
H           1.05974408068165   -1.09413445479624    1.59391226313635
H           1.07759978093297   -2.16678601948503    0.43463699386329
