    26
        -50.46094076  Gyration_radius:  2.63304716036 Dipole_moment: 7.510
 S           0.66867521217336   -0.18195017547153   -0.53237864086534
O          -0.53790258510230   -1.02530877153357   -0.45730787276057
O           1.87833869414979   -1.09778688298250   -0.75040116117177
O           0.59434364613471    0.69629536379072   -1.70281449725799
O           0.85604625147065    0.57168576524284    0.69881928049153
O          -2.69448380834576    2.58572709724896   -0.68030258250308
H          -3.02779504917388    3.44185244475745   -0.95244476078154
O           2.21223289539586   -0.24010029277364    2.83991250561571
H           1.63039016618952    0.12613432109376    2.14224648036208
H           2.99279449457484    0.31613778558785    2.85292318851294
O          -0.43786665759116   -3.04798596450935    1.25781048444351
H          -0.67338074258765   -3.80925382712681    0.72503722332053
H          -0.55413195462545   -2.26277392837984    0.68108577822940
O          -0.13128630637224    2.86552037693775   -0.14172510149029
H           0.19266436210740    2.10598082234257    0.38543211473162
H           0.30522192349030    2.73321801565459   -0.99044345916118
H          -1.77111483256318    2.74077576326182   -0.34732138932553
O           2.17851652181044   -2.46521777346683    1.34853436226452
H           2.04395326719984   -1.68039667256109    0.08871578574627
H           2.28775518213766   -1.77202903751704    2.03545466377601
H           1.26959113038553   -2.81291947066804    1.47525507318422
N          -1.90650242645033    0.44655935444320   -2.03113806648535
H          -1.72741063647320   -0.31476920760504   -1.32406156611815
H          -2.38166985564267    0.11729859757020   -2.86369950757997
H          -2.38965441481075    1.26156344091469   -1.57330817193159
H          -0.87732447747397    0.70174285579012   -2.18388017324966
