    26
        -50.46094132  Gyration_radius:  2.63215495707 Dipole_moment: 7.524
 S           0.21128945253466    0.51654568291824   -0.67070578190880
O           0.71960572947312   -0.31510778376782   -1.76473019319500
O           1.04752782136234    0.42022226040298    0.51670910194224
O           0.22516374497080    1.96244004639431   -1.17968898513455
O          -1.18388631913581    0.15099157011212   -0.36581851259999
O           0.24216424998088   -3.78684510442472    0.00822467977636
H           0.66913651610423   -4.63013680352438   -0.14877542214147
O          -2.47660011575307    1.81006673995987    1.25213893924455
H          -3.28512406969317    2.00703864475935    0.77612576829222
H          -2.01034158348787    1.12351559826683    0.72866734896608
O           1.53209132079340    2.37676180277024    2.25624810053425
H           1.36660467861767    1.56982901243982    1.72651184817691
H           2.44641606707847    2.61605924545163    2.09622653239015
O          -0.41225663768655    3.44904919356206    0.75660697488914
H          -0.03082975934627    2.61395396334660   -0.41743686386969
H          -1.22295254582522    2.99920677409627    1.07858730702180
H           0.28125226546729    3.23519405098992    1.41802725139268
O           2.11358953214951   -1.93275928575357   -0.00498727881669
H           1.78662658526500   -1.11032798114039    0.41470191101585
H           0.97300632889950   -3.12676499296468    0.14104289687641
H           2.18722038398916   -1.67964414857714   -0.93184648691418
N          -1.06781366496191   -2.10085924150201   -1.56159421901683
H          -1.70883088494198   -2.40687328137113   -2.28466212749631
H          -0.24516100719703   -1.51684252395656   -1.92136997211824
H          -1.46914340884589   -1.35218384462292   -0.93673214739107
H          -0.68875468981564   -2.89252961385694   -0.98147064991874
