    26
        -50.46094112  Gyration_radius:  2.63268246322 Dipole_moment: 7.519
 S           0.19053866670527   -0.77982139060316    0.34334504919198
O          -0.07475331183837    0.40682578684480    1.17664932374606
O           0.64825216731184   -0.39405252497678   -0.98348076964440
O           1.28071203209033   -1.61072671668021    1.02951240471980
O          -1.00337532680101   -1.62702318959796    0.28316298304693
O          -3.40352697233025    1.03625217432380   -1.32163389849367
H          -4.21269530080063    0.92094514811010   -1.82171575462252
O           2.05102033751532    1.84753715685063    1.84572154266692
H           1.23052377338063    1.39982778244877    1.54719777881769
H           1.98538550036278    1.91944588771441    2.79940482530097
O           3.17812361732019   -0.01018579998317   -1.71741627875252
H           3.37485469507794   -0.75280890706688   -2.29076213641779
H           2.21555044579636   -0.05165959917440   -1.54127062709117
O           3.41844022637158   -0.27372701081471    0.93794469934101
H           2.18189985674775   -1.10215255634777    1.01628714621780
H           3.53767235437569   -0.13919513216288   -0.02746272835690
H           3.11164749577921    0.59224045089849    1.28319283176625
O          -1.64612686901302   -0.69586003763178   -2.24363064941310
H          -2.71603410626830    0.48011734607165   -1.77502695861170
H          -0.74063287904715   -0.44713907015496   -1.96457152593888
H          -1.81098423743720   -1.49534617415865   -1.73169748832673
N          -2.61360763003153    0.17177535799937    1.05554414931793
H          -2.20069882304390   -0.77518595133841    0.77226270689435
H          -3.06168804849026    0.60868264907753    0.20963078172182
H          -3.23034873502978    0.13335516652817    1.85899285232323
H          -1.69014892869161    0.63787916383893    1.25981974059478
