    26
        -50.46094128  Gyration_radius:  2.63229120694 Dipole_moment: 7.521
 S          -0.26407839193441   -0.77313800838555    0.30764827492128
O          -0.42085964522114   -1.62908746073533    1.56961018269574
O          -0.69216144566606   -1.60784095977358   -0.81790913412419
O          -1.08304989498461    0.42316500591912    0.43718433371626
O           1.16111239327832   -0.42497499131985    0.16367263144214
O           0.12569121180674    0.96955020793261   -3.66665216089518
H          -0.21770375891180    1.04125199032945   -4.55830871979448
O          -1.74301664876092    1.63146745196356    2.71572171082487
H          -2.67745936246755    1.44593653467309    2.82143788917843
H          -1.50376467762369    1.31544880827391    1.82014539520988
O           2.29629634872622    0.67908476720399    2.29307009076582
H           3.07814230567173    0.14322914962709    2.43688083368244
H           1.89608847399078    0.36116969847437    1.45550705511457
O           0.07690768060710   -0.14866538035802    3.55101914076189
H          -0.58802489712696    0.56632393207456    3.44714322478484
H          -0.22649759851125   -1.06297452143462    2.41387258509500
H           0.93017745181842    0.25085667011866    3.27616009147892
O          -1.91725121681906    0.54051353660753   -2.05978576409331
H          -1.67027524335320    0.72973007895577   -1.13096122869818
H          -0.66552264637145    0.95165122948363   -3.06568459691329
H          -2.01847540244967   -0.41774792456542   -2.05826421080750
N           1.26094284168312   -1.00961268525153   -2.31875846078205
H           0.38441991746468   -1.48248199123457   -1.92465255852119
H           1.58929553385701   -0.60508954806145   -1.40193284975221
H           1.92670247661149   -1.64934610655900   -2.73693630670195
H           0.96236419468389   -0.23841949395686   -2.96922743859218
