    26
        -50.46094133  Gyration_radius:  2.6321502679 Dipole_moment: 7.525
 S           0.67149304607375   -0.55188146905862    0.08313383834557
O           0.58139887736223    0.66986757855599    0.86909388319695
O          -0.10516388323468   -0.43634492280037   -1.16449583001551
O           2.13710180760974   -0.80365072483855   -0.28889031771864
O           0.22737194694572   -1.72332957684547    0.84309467883553
O          -3.51547433575382   -0.61814866701544    1.28858146493035
H          -4.16717725695618   -0.88133924537090    1.93985095724223
O           2.23387644433549    2.75263919122933    0.72491619112562
H           1.52643437294338    2.08088519784075    0.81075346460051
H           2.73480853220618    2.71595612059067    1.54136214968072
O           0.80923625323130    1.32493944693180   -2.92605153240190
H           0.38481535500747    0.73341300185114   -2.26823794501942
H           0.86583105954759    0.82303974772057   -3.74089060633859
O           3.00567474155409    1.29524835751440   -1.38696808987967
H           2.54022542594230    0.03342072079923   -0.74475909993885
H           2.30233757267448    1.46464528682980   -2.05015192721228
H           2.86611707931869    1.96792420343799   -0.68543774202800
O          -1.25999594796312   -0.15004065224465    2.56671533859469
H          -2.72124365658593   -0.31033908983771    1.80027592782034
H          -0.82681552487054   -1.01007434461420    2.60185332060879
H          -0.64876954230272    0.37328403183069    2.00814806679447
N          -1.97674579047407   -1.98483637551065   -0.38093494900660
H          -2.73270915129403   -1.51765218361379    0.18236292648910
H          -2.30120550578704   -2.80283557309997   -0.88386368986216
H          -1.49459419969389   -1.27873315402531   -0.99808251313761
H          -1.13682770983782   -2.16605690624896    0.25862203430237
