    26
        -50.45856229  Gyration_radius:  2.576390159 Dipole_moment: 5.482
 S           0.66693798455079   -0.56620849005617   -0.64777322102531
O           0.06447934773998   -1.09654710783585    0.69174266277524
O           1.13079511532488    0.80890457271601   -0.33214067303500
O           1.78602583718544   -1.43024385832930   -0.94037478615418
O          -0.37221011027307   -0.56314993185454   -1.65682304678650
O          -2.42396996879559    2.24028578360581    0.19356655238082
H          -3.28682316366794    2.44079270286900   -0.17305832090013
O           3.71157665897165   -1.51929848269729    0.77455304029621
H           2.98786217001425   -1.62439099094592    0.09664543040496
H           4.49997213806261   -1.30449771124606    0.27249111286155
O          -2.89090957229692   -1.40085965014379   -1.39627361986202
H          -2.90312696466801   -2.34664021281643   -1.54946435015455
H          -1.98842377843107   -1.10040616406977   -1.62812329677161
O          -0.71197969386707    2.08344088265894   -1.83299648402520
H          -0.77649385350199    1.13420756134071   -2.03796807361844
H          -1.79500549813870    2.26287878685040   -0.56984406601928
H           0.12453896173345    2.13190954846754   -1.35166783507647
O          -2.29685798910310   -0.29963605626656    0.98079203176899
H          -2.72545562163179   -0.72813649445847    0.21061800483594
H          -0.90996556153518   -0.76339985027422    0.81804234833321
H          -2.33782706863745    0.66920317902738    0.79284197949674
N           2.10554847964107    0.21442392648143    1.90398298487569
H           1.71260971331492    0.61171793201603    0.93726036359200
H           2.39491594630843    0.93467048051817    2.55744438670596
H           1.33983021838592   -0.35278045028418    2.27009819966013
H           2.89395628338338   -0.43623988526482    1.61642867544926
