    26
        -50.46243657  Gyration_radius:  2.53486544103 Dipole_moment: 5.579
 S          -0.36457313716080   -0.90309010726794   -0.55726446323490
O          -0.39853106930577    0.10358549033747   -1.59687895386293
O           0.64920792492283   -1.91613797046675   -0.78311151145129
O          -0.17904709244891   -0.27903941143218    0.77230308609131
O          -1.77083609035389   -1.56433842065922   -0.54304170061816
O           0.85286816417548   -2.69707389161196    1.71921421303591
H           0.96443627631268   -2.52491461935030    0.75871088942250
H           0.66756489524930   -1.82748027587467    2.08896517678827
O           2.16021320574083    0.36173589119782   -0.15720800122888
H           1.34864567093126    0.18164619738877    0.37076141261068
H           2.18222962681855   -0.38374867036997   -0.76874006664979
O          -1.59657209152673    1.88294690820276    1.21440996212332
H          -1.05245739863073    1.06425120316152    1.12240954249845
H          -2.48729272102211    1.58193163382469    1.40117762457506
O          -1.55384651486130   -3.57352355305739    1.09873019569058
H          -1.75674919248296   -2.32547918255571    0.10192214644141
H          -1.41843146725980   -4.35863819120302    0.56392231715610
H          -0.66845576826790   -3.35139483757115    1.48630979911835
O          -0.97453434102826    2.58453305693546   -1.25342108754083
H           0.42035533060702    2.77012747168174   -1.13799003099486
H          -0.91667005306859    1.63450109914704   -1.53670687230066
H          -1.30921103589715    2.51985856737121   -0.32628489892353
N           1.55156837054914    2.77938489629372   -1.03773895220696
H           1.83092420008523    1.79391001436364   -0.73804295989238
H           1.84362566559222    3.44554567802565   -0.32988530685922
H           1.97556863232705    3.00090102348546   -1.93252154978405
