    26
        -50.45347419  Gyration_radius:  2.42590031273 Dipole_moment: 7.721
 S           1.29591363481682   -0.45585162965046   -1.64899887508138
O           0.12842685165439   -1.50083077126416   -1.81473180495485
O           2.11848390000888   -0.51016020093474   -2.80414567026524
O           0.56851699927102    0.85284897799764   -1.52398119479954
O           1.95055780274462   -0.75140231800541   -0.38049691733398
O          -2.13689949947872    0.90741216665536    0.91947972348319
H          -2.73643182397220    1.34707734738964    1.52267429213976
O           2.09210269614373    0.70474612008681    1.80280951836387
H           2.96806157803478    1.08689984493307    1.86812686272268
H           2.08207653227194    0.19682951892612    0.95544380952430
O           1.15451410066143   -2.07983183961917    1.83903439245931
H           1.35416940806162   -1.33687931056823    2.41873509274322
H           1.61232493786638   -1.86800145998941    1.00593555689428
O           0.09354057405252    2.17347762119557    0.75700327832760
H           0.76485755264563    1.76900927077311    1.34212348686069
H           0.35344734293131    1.87017712221812   -0.13570962987122
H          -1.27608194219759    1.43870203375064    0.93153547976246
O          -1.08315958037433   -1.64913238277445    0.46712078648642
H          -0.27908605444255   -1.61953776265604   -0.91200867941192
H          -0.36600111809471   -1.92618179463687    1.08303886201600
H          -1.43448302088538   -0.81557258825341    0.81374077756882
N          -1.88983065356694    0.43385428248960   -1.71960759210211
H          -2.37940603852438    1.00689544935899   -2.39803903369801
H          -1.97234890632701   -0.55762535563626   -1.93701332398257
H          -0.76863262559813    0.66333677675045   -1.70709969496944
H          -2.21463263771458    0.61974092146982   -0.74496950289444
