    26
        -50.46117194  Gyration_radius:  2.41690265367 Dipole_moment: 3.329
 S          -0.36629003461634    0.48749088366198   -0.82741034982984
O          -1.29571655093981    1.50681418328187   -1.52505243618072
O           0.21686508482864   -0.40486177053795   -1.81068185546966
O           0.63891955499162    1.24605237422905   -0.09704663613006
O          -1.21121031874982   -0.27475108447062    0.11540567511063
O           0.40674636358271   -1.61198972081757    1.51319675885770
H          -0.37306309661628   -1.21696174434636    0.98049709381554
O           3.22849115901302    0.52180560200244    0.13813610038185
H           3.38779197247076    0.74611436437371    1.05811994320543
H           2.39135659870538    0.95741800738039   -0.10704983130271
O          -1.63639585968457    1.32704499230895    2.23961119025925
H          -1.83289366829322    2.20177665137196    1.90112180052581
H          -1.62864101588979    0.73301731390771    1.46431501605440
O           0.96368163569729    0.65508619660706    2.46307052619382
H           0.95599709186426    1.02904978845211    1.55367868228551
H           0.09383592848288    0.92860581870581    2.81153494337145
H           0.72740471936742   -0.77880673750343    2.05714524379620
O           1.98055362082154   -1.75935416084552   -0.39611954270001
H           2.65192197639435   -1.05520456407643   -0.23348797268327
H           1.15403519920906   -1.78903838651047    0.73854662225233
H           1.38254797468513   -1.37373854378326   -1.07868762910582
N          -2.47351370054820   -0.48778976327593   -2.66965505017084
H          -1.53953371403962   -0.88867719912991   -2.68796374633826
H          -1.89994383401701    0.90227204432116   -2.05544282718554
H          -2.91015734037150   -0.61678522642217   -3.57328949417817
H          -3.01278973638086   -0.98458930888683   -1.97249222484200
