    26
        -50.45856216  Gyration_radius:  2.57466904366 Dipole_moment: 5.493
 S           0.87437020526068    0.58161820575890    0.30863164816683
O           1.12699531112730   -0.38972575845500   -0.78596203798349
O          -0.52670173544477    1.18871983935981   -0.01787547805559
O           0.80935972449728   -0.07112172572015    1.60006657765298
O           1.80243355574115    1.68533964385744    0.23904633575079
O          -1.66273277021429   -2.83683849632896    0.27750257974099
H          -2.02221811298349   -3.43206519066658    0.93752578193323
O           1.99927060346129    2.93021164171784   -2.01175882892466
H           1.93317000721746    2.57620816170642   -1.08169687994981
H           2.93338390586720    2.90311843697851   -2.22722461283485
O          -1.28203410642319   -0.19189731799181    3.25089306498982
H          -0.43875914531546   -0.18569002815111    2.75350009576638
H          -1.28104810946700    0.60409557697820    3.78430810122646
O          -2.35968494114801   -0.32019418707284    0.79429250665683
H          -1.28710951471823    0.56428164768999    0.31064946577070
H          -2.16453192162643   -1.24756420453113    0.51569718293698
H          -2.18952928386934   -0.30210731335470    1.75932217149582
O           0.94247793473000   -2.60197594534540    0.74686799853097
H           1.22912498862547   -2.21481180750876   -0.09067217145764
H           0.94153123562877   -1.83090705355687    1.34091795336199
H          -0.68492536011682   -2.82642823378232    0.42844332341859
N           0.24300923965287    1.08384262406140   -2.61676522965253
H           0.94315823833789    1.88201310490263   -2.58965764672095
H           0.08245930211900    0.71876548604227   -3.54969957424458
H           0.65867742135885    0.33254782113601   -1.90280801370940
H          -0.62014667230227    1.40056506227410   -2.17354430391032
