    26
        -50.46243649  Gyration_radius:  2.53478956504 Dipole_moment: 5.580
 S          -0.44635637956739   -0.19814756787405    1.01013457981574
O           0.18647454336234   -0.79735592657210   -0.18654709477638
O          -1.02233116568362    1.09194491729072    0.69509334071088
O          -1.63339206248565   -1.12492137318464    1.39356891701750
O           0.50292233074845   -0.14179700938398    2.10584744244462
O           1.84839488785108    1.18670446411848    0.03434980508729
H           1.35050935990942    0.36579066093963   -0.18464452229169
H           1.71002678159088    1.26846969034458    0.98532389486440
O          -1.18352407227419   -0.58612190286959   -2.41304205025193
H          -1.87753894341087   -1.24525699184627   -2.36037272193888
H          -0.62748896156726   -0.71990227493893   -1.60824036765483
O           1.80001564709144   -2.34425673240193    1.49059366550949
H           1.67677569683617   -2.24617726333966    0.54063940819124
H           1.48942930458132   -1.48766897424324    1.85742163267964
O          -0.52491112214339   -3.31334392532346    2.26600168036290
H          -0.52453508221856   -3.26395194218541    3.22432978541850
H          -1.26577065899609   -1.99901841671576    1.70399767877163
H           0.40732557310170   -3.12857393046775    1.98275338385895
O          -1.70669299193773    1.88670070277180   -1.65094935246250
H          -1.62596003504952    1.01987158371280   -2.11768688501600
H          -1.65319145484714    1.63031413095047   -0.69298896576651
H          -0.41931037346502    2.46362940333426   -1.70268945458122
N           0.64496701941341    2.85337732771452   -1.62870573569855
H           1.13970822337941    2.23162517914608   -0.91630769830883
H           0.63880645525704    3.81418233560656   -1.30263050434596
H           1.11564749052043    2.78388382541993   -2.52524986162531
