    26
        -50.46117194  Gyration_radius:  2.4169684535 Dipole_moment: 3.330
 S           0.07955364645035   -0.40814624365979   -0.94005711646354
O           0.78992831225567   -0.60790018054441   -2.29841087092623
O           0.86728150888606   -1.10242428237296    0.06819808509992
O           0.08273348801351    1.04556544998676   -0.67442842638954
O          -1.28256674963579   -0.89994718955582   -1.01696075983215
O          -0.69630981042632    1.27907117640630    1.71237243664433
H          -0.46147590762485    1.36028981912899    0.71905303847866
O           2.57334101280078    1.67913488377447    0.13452925068374
H           3.18553007335553    1.22038268229621   -0.44265608603728
H           1.68770372306472    1.55612770967930   -0.25864853086957
O          -0.17527115045476   -2.45397391743905    2.15980783970796
H           0.43466856422484   -2.19405116565337    2.85442063623650
H           0.24806130305792   -2.20297753075318    1.31813305579773
O          -2.09810243845769   -0.75272845629946    1.48481325234285
H          -1.38672634411968    0.43535912205362    1.72173573495734
H          -1.98384207455424   -0.87287492251617    0.51283675768820
H          -1.56633640511783   -1.48067751426734    1.88525851633180
O           1.56633512093387    0.28712140764954    2.21017860030013
H           0.20710379134053    0.93423330790006    2.10965786033888
H           1.43310216873402   -0.36147378680731    1.48309902906155
H           2.15338578384985    0.94933288514904    1.79804530762817
N          -1.20896406334573    0.58752202945712   -3.41714201665913
H           0.14543151720513   -0.16701145098550   -2.93256228814644
H          -1.67295980233596    0.48584395005793   -4.31055949941530
H          -1.75278099174344    0.11390925112511   -2.70066182216892
H          -1.16882429635318    1.57029291619938   -3.18005197440153
