    26
        -50.45347420  Gyration_radius:  2.42595474558 Dipole_moment: 7.723
 S          -0.45498543469143    0.05565271929890   -2.09702175376609
O           0.98572203008780   -0.00765519677369   -1.88396231551078
O          -0.92956553715150    1.47085701668240   -1.59267833910397
O          -0.89700244673149   -0.11926327004519   -3.43418676978244
O          -1.12664608876333   -0.89055303871939   -1.14257172578938
O          -0.70859987845149   -0.10549752066047    2.39320674637308
H          -0.69000552158591   -0.33193256486481    3.32322587295794
O           2.66924295480646    1.35721384710492   -0.26335831994984
H           3.02384531201213    0.55383845807079    0.13246995642376
H           2.20578167862841    1.05015800528773   -1.06297913604796
O           2.36540748030085   -1.56529677257791   -0.27844673113037
H           2.78997725143993   -2.25064157746499   -0.79585450683940
H           1.83792064011604   -1.03075974900848   -0.92045283023604
O           0.24017015113855    1.89596598006871    0.67630845827082
H          -0.41039239906310    1.66752043588018   -0.76396034146203
H           0.08337332127364    1.23224167819685    1.36419894940169
H           1.19676897630616    1.83906725679559    0.44790054136202
O           0.02997784760217   -2.09886498342209    0.94900004216116
H          -0.44303984875028   -1.85122711766224    0.12963417572462
H           0.97327556624033   -2.01888720474020    0.70336534400132
H          -0.37667684134062   -0.91950579006380    1.89261271264841
N          -2.51207177511065    0.43105676593365    0.46715117664709
H          -3.47692832921741    0.13371474232306    0.56184810944380
H          -1.95146654033969   -0.20158658920228   -0.30445088028154
H          -2.44667708882759    1.39435929769605    0.14333018661490
H          -1.97740547992065    0.31002516190916    1.35567140785593
