    26
        -50.45846910  Gyration_radius:  2.48587641757 Dipole_moment: 6.163
 S          -0.49080391978564   -1.07360136901568   -1.78211527230165
O          -0.32960150788482   -0.87365009027388   -3.18847192169233
O           0.99429304064539   -1.16741335443915   -1.22681960549320
O          -1.03445631517587    0.16351936910684   -1.14227119171878
O          -1.21649053115606   -2.23811531928702   -1.33106973801890
O           0.65703919811874    1.00497464261250    2.05299846864584
H           0.67689061553152    1.23931266811387    2.98188167768631
O           1.51647954369890    2.77205682768826    0.20680658258928
H           1.30658769498142    2.08751083458124    0.88124898296952
H           0.90659013551582    3.49470983228228    0.36769147294666
O          -1.62168627685306   -2.30573964416564    1.22234301908753
H          -2.00502560721856   -3.16123271702751    1.42112031258929
H          -1.53229167695022   -2.27834776618617    0.22980108432383
O          -1.77158741078191    0.44301645838163    1.37295872721981
H          -1.63610467305656    0.43195302867791    0.40031984088854
H          -1.92935923053446   -0.48970016215862    1.58574018444163
H          -0.31053006684009    0.84546029347666    1.81863670410214
O           1.01028394164938   -1.64292501939738    1.30864833084235
H           0.09731544738601   -1.96346899318073    1.44279621475246
H           1.02727931734159   -1.43586959066100   -0.25902175226324
H           1.03381852883530   -0.72842395119643    1.63991774773070
N           0.95764255948851    1.41229064928417   -2.02608510295446
H           1.50500183488509    0.54865425100065   -2.10226745334972
H           1.31619079548222    2.02408644509081   -1.24909416019401
H           0.89190591970311    1.87995623774133   -2.92401355016376
H          -0.01938136683897    1.01098643895417   -1.70167958267791
