    26
        -50.45846903  Gyration_radius:  2.48571504596 Dipole_moment: 6.163
 S           0.35095651310501   -0.69791793157851   -1.98884739263946
O          -0.38989099923935   -1.41123007448100   -2.98189172919827
O           1.72836788896980   -0.36318274002187   -2.26591222385124
O          -0.45926292891399    0.65405202666855   -1.79173485293860
O           0.23341018090440   -1.38182268922407   -0.66456554925859
O          -0.33195765287469    0.98725913557967    2.13785905832558
H          -0.15200505146227    1.35605518398194    3.00373921320178
O           2.97899991981557    0.70440185711762   -0.26944956520778
H           2.54115881768467    0.24264889907546   -1.03679464931010
H           3.83701830213205    0.98192101237739   -0.59366701052186
O          -2.66615601949589   -0.28316355254575    1.68231285432658
H          -1.86483483350457    0.27242096803450    1.81174336891072
H          -2.60142957935450   -0.99128256963632    2.32614433432815
O           0.72624374172621    2.21387353054972   -0.11287791980470
H           0.02590103982375    1.31256793411710   -1.20808867089552
H           0.28330204566927    1.92866421943877    0.70509041943453
H           1.62084330514160    1.82210669473522   -0.09531210931878
O           1.50046406341713   -0.73849225303081    1.55536728263793
H           0.37302032171255    0.28535072944953    1.97354949409954
H           1.05990932027099   -1.13964252267571    0.77464676803842
H           2.24628447974779   -0.25640641970119    1.16603798529677
N          -2.25894576275974   -1.11308564933816   -0.82586146726506
H          -2.60072728285328   -0.78282270152742    0.11277402259791
H          -1.20190972539194   -1.40961598078097   -0.70231285838360
H          -2.81397298818621   -1.86074195504138   -1.22872324724409
H          -2.16478711609454   -0.33191515154260   -1.48322553535915
