    26
        -50.46699853  Gyration_radius:  2.43490305072 Dipole_moment: 4.891
 S          -1.28218486997068    0.40877424831459   -0.81080832209448
O           0.05773168556091    0.96102155378404   -0.61728191049483
O          -1.26103649983815   -0.34762145194005   -2.17893575481277
O          -1.55056477066612   -0.61115872903943    0.22420409130739
O          -2.29257636258123    1.42971545922889   -0.85324390631400
O           2.29291053742260   -1.72356232005022   -0.40991349033819
H           3.10140494531248   -2.21341262463436   -0.56687184402815
O           1.83270942445809    0.44658254000777    1.29653775145451
H           2.10509672675120   -0.41435372475302    0.93880498819728
H           1.37028495268401    0.86802158742517    0.54560480705324
O          -1.82191090516280    2.65774537721296    1.43333078752688
H          -1.95795487961805    2.28678054807821    0.53043729214730
H          -2.64133848715247    3.10370949265122    1.65579988058439
O          -0.27235459273738   -2.50642488805408   -1.10393523366417
H          -0.81234806095192   -2.13323827840450   -0.38704492521938
H          -0.88603575880095   -1.24048144498629   -1.95792638477400
H           0.65310735785934   -2.37472199327724   -0.82955634085239
O           1.73254503960266   -0.03541022549618   -2.37045562588848
H           2.19987726889192   -1.08938340026876   -1.16588081392570
H           1.18041803837885   -0.34627058248784   -3.09131312969562
H           1.13156683638132    0.48001601221023   -1.78572013842382
N          -0.57342995314505    0.47439184517966    2.34590206899903
H          -1.03081600391753   -0.08844581310456    1.55865636008816
H          -0.96005628514777    1.43538524490735    2.21198292983598
H          -0.78236577657656    0.10418823340347    3.26631155095090
H           0.46732041300274    0.46815333412901    2.12131531237231
