    26
        -50.45856214  Gyration_radius:  2.57455129664 Dipole_moment: 5.495
 S          -0.55394218189427   -0.07714685170201    0.94166717796798
O           0.71887183023750   -0.84153639538672    0.90206016384988
O          -1.17896626857508   -0.27810111101091   -0.47501309463363
O          -1.48482699588205   -0.67881659981424    1.86668304344769
O          -0.32338583619164    1.33722673031334    1.15244693267882
O           2.44092632775384    1.49168311185611   -1.64668155886518
H           2.76846655735994    2.36637711743739   -1.86288531902197
O          -0.91088767629422    3.33951178835576   -0.50900084552847
H          -1.82372115051287    3.58848024152647   -0.35779588247252
H          -0.68334268443981    2.70120050227587    0.19759386010230
O          -1.98403457508139   -3.19305450182935    1.57708358726602
H          -1.80169265442246   -3.58067981219333    2.43511101890614
H          -1.92880481524305   -2.20707132438411    1.71629789641106
O          -0.17269609007906    1.32403985849223   -2.12360336775231
H          -0.45919724787703    2.17801535379681   -1.73751117534593
H           0.81041026099693    1.31558485890693   -2.02809281138622
H          -0.76057032067515    0.37789260496424   -1.16071255989499
O           2.34656301370502    1.30697330059411    1.00295988724246
H           2.25448876355505    0.35011140873215    1.10056767230002
H           2.48722285018468    1.42298750342535   -0.66075582307110
H           1.43883091585550    1.61892733834351    1.16431953536693
N          -0.22722226847974   -2.81524562398426   -0.32838759892172
H           0.38049969877274   -3.53427296170030   -0.70665967388871
H          -0.92348598772219   -3.18270892825273    0.38458555662391
H           0.31603918509609   -2.00437868084265    0.21453157049775
H          -0.74554266003094   -2.32599892787532   -1.05880816187401
