    26
        -50.46699851  Gyration_radius:  2.43484110275 Dipole_moment: 4.891
 S          -0.39934932567919    0.65631392187152    1.37134223456544
O           0.35874998797663    1.06889799783980    0.19113818012238
O           0.19285611249480    1.12747059324656    2.59291212393809
O          -1.82809177607047    1.27388137151067    1.22366469031862
O          -0.57678894409958   -0.81061969954769    1.35658511141799
O          -1.20416378390524   -0.31738828674006   -2.61559468507060
H          -1.54558260117223   -0.34891771394287   -3.51038257562306
O           2.63351728926564    0.15896059860197    2.33991375610145
H           2.98180179755730    0.11128019298607    3.23224061025582
H           1.76495475943085    0.61803982304904    2.41804433910252
O           1.44564066939485   -0.42458880711846   -1.72372497328087
H           0.60739481165643   -0.61479246422965   -2.17613126228629
H           1.22562186011559    0.33455176971905   -1.14878743719702
O          -1.22818100765011    2.12930023516130   -1.60558793240892
H          -2.00459651425101    2.40956797483879   -1.11595236462336
H          -0.56586765231469    1.87811516564943   -0.92217064952193
H          -1.20681704886738    0.63743559231842   -2.34966293385484
O          -2.64879356258443   -0.69007468166116   -0.28090112587587
H          -2.22802970504661   -0.66502937072359   -1.15914689405497
H          -2.00289166111747   -1.11890430858679    0.30541550649335
H          -2.31254145367054    0.63054520971660    0.64226614951881
N           1.73337881918117   -1.64617690184263    0.58188260903135
H           1.75580025376268   -1.29306574687657   -0.42246703827339
H           0.73853000005492   -1.44862410392080    0.92379470668900
H           1.99033640359087   -2.62347489344021    0.66395177973139
H           2.32311228189873   -1.03270347780603    1.18735808473324
