    26
        -50.46699852  Gyration_radius:  2.43484850678 Dipole_moment: 4.891
 S          -0.97132593458751    1.22827334609115    0.13332675309660
O          -2.30910692510708    1.54805734739831    0.54923908279613
O          -0.91793972309537    0.01604119926668   -0.68235918558491
O          -0.42015175229113    2.39028411788581   -0.75568023045701
O          -0.03953291706202    1.09850225300944    1.27281957070575
O           2.44101530660516   -0.61121060665460   -1.43490437066031
H           3.19283763235553   -0.86300041033609   -1.97303534860737
O           0.46283110937650   -2.22349990434937   -0.28751693027946
H           1.31725084950228   -1.85216464969021   -0.56240533483102
H          -0.18603862312684   -1.57993277873495   -0.63406262670045
O          -2.99397340152180   -0.71367662052766    1.72152987025885
H          -3.70492355731580   -0.48353349316666    2.32271051249907
H          -2.80711976034373    0.10491427235070    1.20550535812813
O           0.47210603427668    0.42910626488368   -2.86605737134486
H          -0.17523742059381    0.25246176187904   -2.14593022267389
H           0.45815549054356    1.38041394033961   -2.99244003789506
H           1.74626270528015   -0.28475245194917   -2.06188965976460
O           2.05519240847696    1.82267432359391   -0.16825749794465
H           1.57566162473561    1.57112837624666    0.63897744653677
H           2.33449556177844    0.98421373236059   -0.57815603410591
H           0.56614175447688    2.32463866406565   -0.65826983251962
N          -0.40957688823247   -1.33737749949498    2.02426993076910
H          -0.01279988136828   -1.87315693754123    1.19395212501833
H          -0.16440787390018   -0.31254792819441    1.83643742877951
H          -1.45321830665888   -1.34682590262920    1.98725180529650
H          -0.05659753218529   -1.66903042609494    2.91494481948245
