    26
        -50.46699858  Gyration_radius:  2.43480274866 Dipole_moment: 4.892
 S           0.75624524756153    0.94962666295361   -0.99786028637101
O           0.28506698081490    2.41663192904023   -0.73270479070057
O           1.91293281060673    0.97375765482003   -1.85014151185177
O           1.04127279215919    0.35911738491882    0.30896796231374
O          -0.38903384261185    0.25044949480289   -1.61678994660464
O          -1.95196406139348    0.29424820682589    2.12009255752358
H          -2.52364481919888    0.38297553729428    2.88400793275878
O          -0.10756311967586   -1.71943326064024    1.50808762877287
H          -0.91499823229569   -1.24262927938190    1.76136959814072
H           0.51942430205416   -1.00267625311813    1.28798792992433
O           2.58275524978820   -1.57744342888503   -1.81046436058541
H           2.42047590371320   -0.60639656795894   -1.76568367222803
H           3.10082088990349   -1.71640154066458   -2.60554749057082
O           0.15032089837725    1.89869028408331    2.23446188902285
H           0.07626123874411    2.77062102522133    1.84022960079658
H          -1.17715698219504    0.89109947679080    2.28097541364159
H           0.63144556943196    1.35307948760247    1.57141238129318
O          -2.16989550182074    1.67035691653992   -0.27459065015775
H          -2.24191706738008    1.18483153188769    0.56690544471165
H          -0.68162727161385    2.32776020366760   -0.52227982309664
H          -1.86135672498345    1.01831257741108   -0.92614360466168
N           0.09508493088996   -2.21772143011050   -1.06135341970294
H          -0.03139504938613   -2.22127398600568   -0.00408149946613
H          -0.22457238796327   -1.24590302952738   -1.37617129966164
H           1.11238427348138   -2.22552676392663   -1.29752834627388
H          -0.40936601700725   -2.96615282369223   -1.52315763698953
