    26
        -50.46699855  Gyration_radius:  2.43484102289 Dipole_moment: 4.891
 S          -0.22154062853073   -1.48806901234726    0.45260537981836
O          -1.14886184129937   -1.06183435127668   -0.61600245896952
O           0.30365532371203   -2.80738163335530    0.23241763624152
O           0.83431104304970   -0.48917026320015    0.61094750697744
O          -1.04701345533028   -1.48076228709749    1.78036868784186
O          -0.70435899449715    2.63061874306040    0.98784591262608
H          -0.84630178264416    3.50722114007494    1.34801690792056
O           1.27221454063805    1.73604061772625   -0.77967511731722
H           0.55736545725818    2.24498700857577   -0.36329325441056
H           1.39403628011090    0.97879234112268   -0.17381901857512
O           1.85011152393646   -2.35941914170817   -1.85706998164797
H           1.95455098495682   -3.21219537339113   -2.28336091618541
H           1.36300609316848   -2.53920235834596   -1.01938322351652
O           0.40525287609589    0.98265869109740    2.73720113604911
H           0.69852369854286    0.37922507266625    2.01705550782322
H          -0.24311364894722    2.11033413519349    1.69425793368199
H          -0.17332711625919    0.45427025532138    3.29143434306340
O          -2.51007696496860    0.52942432121247    0.99771161799574
H          -1.99373687080580    1.35508477245606    0.97111837272261
H          -2.30829969390915    0.06906511242186    0.16572391540991
H          -1.68897265071591   -0.73175964523830    1.66398824162261
N           0.45227249326517   -0.14708494517882   -2.41451222171387
H           1.16063360246398   -0.91404097394003   -2.38598534283378
H           0.12869822515220    0.03826239537714   -3.35729354981525
H          -0.32539672607260   -0.50417713379108   -1.77160148344364
H           0.83636823185681    0.71911252243783   -1.92869654134173
