    26
        -50.45997525  Gyration_radius:  2.57011029601 Dipole_moment: 7.036
 S           0.47645106324394   -0.88303690952522   -0.28231984104347
O          -0.09353651946284   -2.18734124362490   -0.64441537550124
O           1.26390218454354   -0.33075282134643   -1.38345066942770
O          -0.78090064407205    0.02792610001692   -0.12919407960867
O           1.20156365247652   -0.90346375862280    0.96617392568166
O          -0.43069564147712    1.77355579498939    3.31231828007848
H          -1.33540471849598    1.98631466454516    3.54588910794223
O           2.51831230873476    1.40893638593451    0.23096706137712
H           2.23782959413093    0.88545736147957   -0.54040925975777
H           2.56448048813636    0.75768525337095    0.93996407820930
O           0.02876334231537   -0.21799883605558   -3.65726135710806
H           0.55701957598724   -0.15656784634035   -2.81616264500997
H           0.59715277109107   -0.66987475501987   -4.28354637634927
O           0.02905721195222    2.23826660580023    0.71494873232452
H          -0.09219261677346    2.18041829875312    1.69137936206893
H           0.99735752591056    2.15015824990810    0.55511659079489
H          -0.48007599958000    0.97007528564755    0.21051240702109
O          -0.29225264987468   -0.89900083557065    3.12624044214538
H          -0.37835031007491    0.79086628787003    3.29400508686948
H           0.21962483010353   -0.95116721731455    2.28759903077062
H           0.24491678496556   -1.34649734603604    3.78276126845364
N          -1.85772551121723   -1.33517383705593   -2.21135427847453
H          -1.12689671677264   -1.84246472245654   -1.52744024073002
H          -1.24558129250618   -0.90776589182525   -2.96285471032291
H          -2.57381689146028   -1.95296719384484   -2.57795040914460
H          -2.24900184182163   -0.58558708367673   -1.64151611126009
