    26
        -50.46195496  Gyration_radius:  2.47280942273 Dipole_moment: 4.179
 S           0.47631482181967   -0.38886463778413   -0.73476204664739
O           1.01733447046387   -1.22909774743563    0.31997085088107
O          -0.18237198539404    0.79334228387502   -0.14048381853168
O           1.69070098831160    0.14906137581422   -1.53411442326546
O          -0.41564584512818   -1.08425399950578   -1.63876540123462
O          -2.45752081531547   -1.54777624672798   -0.01475834933589
H          -1.74750980043795   -1.34449952383903   -0.65960329818336
H          -2.99710834562851   -2.22959644878074   -0.41909377031794
O          -1.10457578864145    2.34225096530954   -2.10210803142145
H          -0.87699629284399    3.24026321624731   -1.85644166660482
H          -0.87247695149207    1.77916003648634   -1.33535113008453
O          -0.31751999994410    0.70992533558792    2.36043143905832
H          -0.35889589253392    0.86608681660335    1.34434120454575
H           0.73906758205672    0.61484906024670    2.50736562469775
O          -0.88295514752731   -1.71303156465992    2.11868843205137
H          -0.10863402705921   -1.80507040808678    1.52563026233666
H          -0.66418714965935   -0.28375426487402    2.42348782144496
H          -1.64560397172230   -1.72720067625353    1.49980515062806
O           0.27735967439962    0.60551636189958   -3.61617466182886
H          -0.26314962340458    1.36109375616712   -3.30663471137975
H           1.29793295647828    0.39353948418820   -2.42599472363187
H          -0.21456131362311   -0.18031314848249   -3.33436426465901
N           2.17288499374319    0.26951564158015    2.34162338144285
H           2.02822005975783   -0.35079938892554    1.53615113353781
H           2.61803463264264   -0.25876983701350    3.08080154756955
H           2.79186278068090    1.01842354836149    2.06035344892791
