    26
        -50.45974663  Gyration_radius:  2.50440578131 Dipole_moment: 6.041
 S          -0.23152786509199    0.69126415618880   -0.68687383973941
O          -0.44776148602719   -0.51663101209447    0.12567579135210
O           0.83787963228310    0.44291457098613   -1.66063823425872
O          -1.46534268666480    1.08588658835357   -1.36040597005132
O           0.15992675516448    1.83617222381471    0.24479979186719
O           0.74358402666942    0.43428024455527    3.69898435553259
H           0.66907950671817    1.01322468598176    4.45897257165222
O           2.31430444105391   -0.96599061599216    0.07326172380418
H           1.96750401766610   -0.47993509068716   -0.69770246424978
H           1.54274055446403   -1.41054743256153    0.44070657645405
O          -1.35443492997078   -2.37382204757368   -1.49651049862525
H          -2.19485590222099   -2.66502581497184   -1.13801887649201
H          -0.97866647729906   -1.75332590859793   -0.82451070826215
O           2.16674408094927    1.21853403395687    1.58152868824798
H           2.45055500594301    0.40013196088893    1.11002887298233
H           1.04727094634218    1.62755388633370    0.79734926824571
H           1.75995962002596    0.91656462214252    2.42832354359869
O          -1.51683709936742    0.66172208688492    2.25804463043621
H          -1.21944882939485    0.10285284817995    1.51342268172276
H          -0.13656959141033    0.43714408556107    3.25852705717243
H          -1.50737915610382    1.55671144864582    1.90754264020167
N          -0.93639762184530   -0.47150151561033   -3.27476286939956
H           0.04686067760272   -0.23920300398493   -2.98631341302462
H          -1.17418679249279   -1.39343601483537   -2.82898172983399
H          -1.43238196422347    0.26912873312300   -2.66988003751665
H          -1.11061886276928   -0.42466769869078   -4.27256955181669
