    26
        -50.45974664  Gyration_radius:  2.50433825143 Dipole_moment: 6.040
 S          -0.88314039846715   -0.08568902796689   -0.46553049751575
O          -1.89991924524152   -1.13103452106806   -0.53720133827390
O           0.30914019703721   -0.57027570404867    0.24845333914490
O          -0.50171688423355    0.36395471142135   -1.80930230409403
O          -1.48278594380145    1.07345085586722    0.32742604246387
O           0.90571405333780    2.00348411263057    3.09648649762673
H           0.57116204701182    2.45837997753720    3.87068368562194
O           1.78621820572903    1.47221103199726   -0.96779688725048
H           1.96831587144403    0.74682308795101   -0.36065896890004
H           1.01500652235560    1.16819363859538   -1.48134993742448
O           1.14500748894274   -2.70996928089339   -1.02614421519496
H           1.16141097435973   -3.42264829104911   -0.38470546614579
H           0.92960160788500   -1.89335405562709   -0.51174415347834
O           0.21479766155238    2.86208818556512    0.66559935851592
H           0.54544665831139    2.65756113113783    1.57257552564955
H           0.91933267324741    2.55945112666264    0.04540106428742
H          -0.79906641631543    1.88233608446074    0.44801135236864
O          -0.57781844335225   -0.21085537540488    2.73089013375429
H          -1.45372098631149    0.10488527992529    2.49204039774006
H          -0.16898195419768   -0.46798763093292    1.88122686843154
H           0.43581486698279    1.13965062646530    3.05566080922040
N          -0.83502167112410   -2.04364484947051   -2.63565825059028
H          -1.52018892299848   -1.90873952871401   -1.81543719259749
H          -0.00066003612102   -2.52885501393917   -2.21875548039516
H          -1.21255256648641   -2.48590792681810   -3.46633682298997
H          -0.57139536953796   -1.03350865427828   -2.75383354997049
