    26
        -50.45261714  Gyration_radius:  2.43230070266 Dipole_moment: 5.788
 S          -0.50696233998302   -0.56442571866754   -0.96715986219605
O          -1.19842405348362   -1.34830237377394    0.03146660213228
O           0.06798452413248   -1.36037765024235   -2.02975939066013
O          -1.51130207401802    0.45526731343331   -1.53501182939667
O           0.56867862759566    0.24555122368703   -0.31232724767799
O          -0.51863593163088   -1.68542188947671    2.62425203498297
H          -1.01380968336939   -2.06751674848323    1.88188836118222
O           0.11026453702370    2.62092491164060    0.72540724275840
H           0.79199045911987    2.79301685639342    1.37727792630919
H           0.32896811985112    1.75260281723996    0.31938821475160
O           1.37918832027855   -3.07857604892295   -0.59855495416359
H           2.14213007645778   -3.33252146748253   -1.12227185955534
H           0.81216070142443   -2.51741639453825   -1.19202127231993
O          -1.60077378503035    0.63438177519347    1.85885044406478
H          -1.22332944897628    1.47379573406290    1.56007867429029
H          -1.68673643638763    0.07727557552549    1.06819219725613
H          -0.88471999251930   -0.77470828368672    2.67989601554628
O           1.56509046248459   -1.36984743835356    1.27820729511021
H           1.58076148486485   -2.16769667070071    0.63763533092547
H           1.21156618181345   -0.60667663492225    0.64207311721074
H           0.74544336022019   -1.53581648000632    1.94698325378109
N          -0.18395107394513    2.56043228735212   -2.22933999475686
H          -0.59746298775347    3.19035105695392   -2.90303074413398
H          -1.00322295130810    1.27288071836475   -1.88132794738946
H           0.74682911547211    2.30806833496061   -2.53240105641749
H          -0.12172521228184    3.02475520444789   -1.32839056162388
