    26
        -50.45974660  Gyration_radius:  2.50426669752 Dipole_moment: 6.038
 S          -0.44195380512067    0.89911526561480   -0.00758380899919
O          -0.16501734479983    1.32484987706687    1.36918653007268
O          -0.41578047684094    2.03966544241960   -0.91868495878602
O           0.54356236158096   -0.11430174993931   -0.41727023099019
O          -1.83547252879859    0.28129058107134   -0.09772170405224
O          -1.47494734209414   -3.41477655817574   -0.76441531842853
H          -2.20010711694473   -3.89120702035193   -1.17110441517438
O           2.88344410486970    1.07847303623561   -0.47919585204920
H           3.22824968395491    0.95992450142484   -1.36614508592160
H           2.05538223670759    0.53923959618502   -0.44106005374599
O           0.46233227394943   -1.14811044225105    2.18219782587697
H           0.25807206742866   -0.19678165132284    2.11733993087558
H           0.93868422859654   -1.34480415691350    1.36837071200146
O          -0.90535853536722   -1.29037256762308   -2.31357929769020
H          -1.20199105887861   -2.72065242725657   -1.40660855318974
H          -1.66992455260439   -0.71187105345720   -2.24524335838377
H          -0.24514881868849   -0.89801844754354   -1.70901047957077
O          -1.96050966115950   -1.78135339348068    1.28964063136805
H          -1.80786647481384   -2.48670660704514    0.61658231618159
H          -1.11913306764904   -1.70548371331872    1.79861091030353
H          -1.94238162213336   -0.57735938810935    0.52517958275692
N           1.44163692786192    3.09183136590301    0.42793935743111
H           2.25080101993087    2.49804755851991    0.11483533269661
H           0.68081524003720    2.94694231804890   -0.32073071785171
H           0.96338815943463    2.56897703999689    1.20374181354442
H           1.67922410153450    4.05344257430361    0.64472888173482
