    26
        -50.45974663  Gyration_radius:  2.50431580812 Dipole_moment: 6.042
 S          -0.92497462094234   -0.32618508041014   -0.20402386907241
O          -1.29860618473123   -0.38027190352711    1.27569905063077
O          -1.48442424855067    0.88058681694780   -0.82363693747204
O           0.54253392276035   -0.30046332441648   -0.31269253386474
O          -1.46604999064815   -1.52928390855730   -0.82971980392745
O           1.82553109626031    0.13897777207905    3.32709345584898
H           1.85370888745388   -0.18338660712624    4.22905330367017
O           0.45981053249571    2.46385682562866    0.11664347250722
H           1.14168026160072    1.80467583189844   -0.05208120506508
H          -0.34062198129816    2.09384138292807   -0.29966083775296
O           1.12063321388904   -0.45917762413291   -2.87050014714225
H           1.68760208411301   -1.22525652106360   -2.97666036773010
H           0.99673320629054   -0.35245098480256   -1.89524918811682
O           1.09056530820396   -1.90410499262069    1.73839126113425
H           1.02454534234808   -1.37630991309186    0.91848712806795
H           1.67993025338307   -0.64773170270032    2.75392093396647
H           0.17935316414688   -2.09729677689392    1.97571354703073
O          -0.28829761511074    1.54031379211719    2.49500395991345
H          -0.92556315988672    0.45587414110729    1.82140828860685
H           0.52459286070809    1.13164655717326    2.87697012097245
H           0.01634544412095    2.09288804397237    1.73707377474891
N          -1.50750730730163   -0.36480065767535   -3.06852780140673
H          -0.48374026604540   -0.39341141169597   -3.30609129329137
H          -2.13046785757009   -0.42300830032558   -3.86645684910433
H          -1.63972610999436   -1.11427479635336   -2.30600277128644
H          -1.65358620568838    0.47475335157349   -2.45415470185356
