    26
        -50.45261714  Gyration_radius:  2.43248095649 Dipole_moment: 5.788
 S           0.93930549327714    0.27994182406732   -0.74272365228250
O           0.34800475857264    0.22166077033154   -2.16326170402719
O           2.32349017434376   -0.14097843793404   -0.74868413840262
O           0.74687834333983    1.62335733556299   -0.24472440881950
O           0.12966220787710   -0.67845110451377    0.07448030102985
O          -0.52661783227227    2.37761266713068    2.01565453507420
H           0.13512875447403    2.64348548883220    1.35703225585889
O           2.94299855280685    0.43051303440241    1.70254252983310
H           3.61704706433356   -0.20209494099457    1.96007749603495
H           2.79394917696301    0.29323565790017    0.72908455672423
O          -2.39042519844715   -1.21366589754039   -0.46593121653302
H          -1.44208590519539   -1.06656100722089   -0.25214316028326
H          -2.80085089922086   -1.53751894365036    0.33778929237228
O          -1.97387369716905    1.58612387940416   -0.08554818577412
H          -2.33269424094293    0.72880712795618   -0.35503480954593
H          -1.31065197741573    2.16986235928511    1.45984309221834
H          -1.07093170837491    1.62754768641793   -0.44051318797286
O           0.50928927906659    0.13144291863648    2.38363541925044
H           0.04393183275718    1.09508930724337    2.34525614204879
H           0.27938822002210   -0.28915410327031    1.44430359060567
H           1.51506499074871    0.29289434101697    2.28588437582315
N          -0.51749648093518   -2.18059786484417   -2.55772292238363
H          -0.63778290601322   -2.49834198801316   -3.50968957669768
H           0.04588650626977   -2.84840017038699   -2.04924882428442
H           0.05933420205463   -0.73762455822327   -2.37060439925100
H          -1.42594869090169   -2.10818537155917   -2.10975341061211
