    26
        -50.45261719  Gyration_radius:  2.43248570198 Dipole_moment: 5.791
 S           0.43783752649685   -0.71912154621112    0.89581604934411
O           1.34936209839397   -1.19140903687225   -0.12194096319035
O          -0.63949554783341   -1.80135367142145    1.09333943361784
O           1.08538387361743   -0.40876977332325    2.15186070283579
O          -0.28826551830199    0.49118651001827    0.39611720957393
O           2.01625861462110    0.03507333719813   -2.43481291918975
H           2.30175744231368   -0.61952003870550   -1.77719255775365
O           2.96568294504085    1.14699881959303    1.27834788653317
H           2.33619883891647    0.47577044323929    1.65500238755471
H           3.14452284501738    1.77005912731462    1.98595307799435
O          -2.50521774836779    0.32441815806849   -1.01342298144682
H          -2.59635512298849    1.13662307485890   -1.51472832492450
H          -1.69859675515610    0.42957362487751   -0.46113305101495
O          -0.37539804650593   -1.13792611808255   -2.23208781956261
H           1.12305618019679   -0.28979919287762   -2.68648697060464
H           0.07477811111735   -1.40768782920344   -1.41504281169767
H          -1.24919676119125   -0.81712399880975   -1.96777356142847
O           1.51302028211911    1.77800601269969   -0.71358930013726
H           2.22086708287378    1.63540676515833    0.01152024643927
H           1.77065268858062    1.12226832644970   -1.51992369539964
H           0.67626673187411    1.30952597585113   -0.27467154298323
N          -2.82844191743849   -0.61573760579493    1.78451451546673
H          -3.17108376120807   -0.34600282829567    0.86742751887399
H          -2.62659500238818    0.21938123889586    2.31721927977313
H          -3.53746540532978   -1.15543004118457    2.26164861796376
H          -1.49953366448543   -1.36440975346212    1.43403955337519
