    26
        -50.45725984  Gyration_radius:  2.58788390671 Dipole_moment: 6.908
 S          -0.63778207233642    0.79984013980569   -0.08567506999501
O          -1.79236638560289    1.51437148851874   -0.57500868957059
O           0.22870477945095    1.55735452665443    0.78530026180852
O          -1.05526437490864   -0.48790607246132    0.53947377607227
O           0.16166820140237    0.36243433737373   -1.35654297907742
O           2.38072922027858   -1.41130845853038    1.80330264977539
H           2.30231946494238   -2.34217148698970    2.01337944167421
O          -3.66909108313575    0.43841710581600   -1.99053101514647
H          -2.99123741389630    0.99852875633392   -1.52595785409039
H          -4.47373142926284    0.53189622850740   -1.47729194003130
O           2.81692164366501    2.11493860242478    0.38795605085380
H           1.84737605711571    2.07203866671893    0.50993037667685
H           3.19624840891746    2.08861173872099    1.26875789895191
O           2.47342112018919   -0.32647516119307   -0.65226331893261
H           1.11672419578755    0.07223680981114   -1.08093583834860
H           2.82580275251855    0.56178569230839   -0.42631484825631
H           2.45420883803054   -0.80609617092140    0.20531681113338
O           0.25310969559121   -0.19877506130329    2.84362914797893
H          -0.36088321198071   -0.49820422720259    2.14953279200691
H           1.63908334877101   -0.95823626233772    2.27364146778191
H           0.40672362608647    0.72198203723578    2.59529465060118
N          -1.83900729282739   -1.40733189691181   -1.66607093654018
H          -1.57058101071865   -1.14625729450722   -0.62330183667209
H          -2.70205152999590   -0.83284721387123   -1.89345055901058
H          -1.05066112714600   -1.01749580925978   -2.19242675033144
H          -1.96038441093054   -2.40133100471552   -1.82974367931314
