    26
        -50.45725967  Gyration_radius:  2.58793016475 Dipole_moment: 6.916
 S          -0.13575700217900   -0.94809953349491   -0.36966092709223
O           0.77229272143534    0.03158535388364   -1.18290544349459
O          -1.52171348115676   -0.63009506731561   -0.61726313600840
O           0.26862551073139   -2.27632695885769   -0.76384339422411
O           0.24076930941961   -0.69457140947514    1.05067218649341
O          -1.46855704862823    2.66475509643417    1.28558646058899
H          -1.09705937780501    3.05524627772692    2.07698264033879
O          -2.46858745425790    1.34268790373434   -2.15967086522500
H          -3.25795927047491    1.63538638440437   -1.69966709666419
H          -2.18362882995571    0.52130253086060   -1.71147448745862
O           2.60767008935192   -3.27524039778624   -0.30077372137650
H           2.46188476990587   -4.04562882205020    0.25133529450798
H           1.70527510256614   -2.99791941690277   -0.61342494550344
O          -0.23150696638161    2.33279210549613   -1.07554873655233
H          -1.01292988460371    2.17647138000502   -1.64934790240602
H          -0.61338764872066    2.51122054421954   -0.18779870247287
H           0.37224110166797    0.98596153807009   -1.14491433583103
O          -2.13815245672577    0.16260396814814    1.89398665733304
H          -1.22631293935833   -0.17789024112327    1.86314201876638
H          -1.80005502309116    1.77140023240722    1.54738527875500
H          -2.50132796163753   -0.15479679643089    1.05692929821144
N           2.69496992408596   -0.78595589510134    0.50999238165145
H           2.59525782052610   -0.27361667376557   -0.37207260974962
H           1.66569709011552   -0.74335914543762    0.91812429158106
H           2.87078497506205   -1.80679647490105    0.27885330809806
H           3.40146694004165   -0.38111648271568    1.11537649775011
