    26
        -50.45725983  Gyration_radius:  2.5877276178 Dipole_moment: 6.910
 S           0.91530736618160   -0.46208292716596   -0.04359583601493
O           2.25137488419852   -0.68897000845169   -0.54005076242814
O           0.87335474000487    1.03915575094880    0.39281099994087
O          -0.07008868640535   -0.54143253364390   -1.15976962306874
O           0.52543477258398   -1.29338586920362    1.07002241118955
O          -3.12880307066072   -0.23665308650862    1.03158691403962
H          -3.82995512301595   -0.02578814400063    0.41457950115806
O           3.23224854785373    0.46251255719009   -2.63631091135341
H           3.01818980304645    0.01044843948968   -1.77676149231340
H           3.44366181676989   -0.24265188068139   -3.25080066882064
O          -0.22131660361351   -0.46912967537743    3.50514190256503
H          -0.89653226136112   -1.09935620138988    3.76445173305731
H           0.18520648254946   -0.82840434380413    2.69123323306672
O          -1.15462511359727    1.39933810639986    1.83249164105391
H          -1.91917602914555    0.87624698281713    1.50438720257884
H          -0.85240604840403    0.91358195129171    2.63058255541485
H           0.03989969816718    1.20354548741046    0.98477007812379
O          -1.75585855430096   -2.26069430726052   -0.01622675592893
H          -1.27914050419683   -1.71106868880691   -0.66352817443165
H          -1.08031639546492   -2.41284351704816    0.65725411211924
H          -2.68608211767127   -1.04733748806347    0.68040811316750
N           0.86713824166609    1.52068548819795   -2.25250472250266
H           0.35915467985038    0.59385238267326   -1.92046711054368
H           1.82078604857693    1.21583467148417   -2.60495403855296
H           0.34176481429819    2.06584517939236   -2.92801801033513
H           1.00077861209096    2.01875168409916   -1.36673226117738
