    26
        -50.46112294  Gyration_radius:  2.68898916628 Dipole_moment: 4.736
 S           0.78281925898763   -0.16815282875635    0.19273878970319
O           1.25688387732515    0.25452259926454    1.48182917419242
O           1.47356411513177   -1.31723432463215   -0.36096728605555
O          -0.68026504959627   -0.38228351783687    0.18538805248773
O           1.03625984767525    0.99507054612549   -0.84566172366061
O          -0.82323794056639    3.51078458327138    2.30119236389227
H          -1.67935569703977    3.74596333009343    2.66256408862548
O           1.15298390698814   -0.59634181453052   -3.03430428950722
H           1.18469718661525    0.13616209749784   -2.39147993547966
H           1.82531925019684   -1.20944595129579   -2.71873657371417
O           0.42241863789507   -3.68356955519302   -0.81132755664958
H           0.23948688360381   -4.10654543701523    0.02891095032096
H           0.95623800490535   -2.88189114712458   -0.59867527781990
O          -0.04525422672718    1.27082841121383    3.51948023075203
H           0.65310941764929    1.37434200904275    4.16861181337150
H          -0.51830084095205    2.72092942994033    2.80704713298891
H           0.38458236233918    0.83029716069653    2.75068086749135
O          -1.01275347923181    2.27361067551427   -0.06279951958647
H           0.32729774968661    1.66815524723307   -0.60687791027162
H          -1.28336486844885    1.39519455073577    0.24493021387203
H          -0.89613252304073    2.82787393161623    0.74442076022436
N          -0.98790010700121   -1.74179673379726   -1.95928923478591
H          -0.98822443384437   -1.14973498915442   -1.05325442410375
H          -0.65061734645910   -2.68546213298549   -1.66289066138804
H          -1.89358639704370   -1.76816729871192   -2.41401975272235
H          -0.23666758903627   -1.31310886122782   -2.56751029219598
