    26
        -50.46584240  Gyration_radius:  2.39857663551 Dipole_moment: 4.265
 S           0.46034058241151    0.35365642057460   -1.78572981626977
O          -0.08964971567041   -0.07691683311175   -3.05219289665320
O           1.71907740332794    1.05544431027555   -1.80883929624632
O          -0.55564660665581    1.09663949221477   -1.00427942775994
O           0.66757086986380   -1.00427381175073   -1.00203790296748
O          -0.66186314823234   -0.58696812029547    2.28793431428178
H          -1.01351421093588   -0.59735271591982    3.17877357455400
O           2.34794743551945    1.84885350437188    0.59549908193123
H           2.09891379674843    1.62284194764985   -0.33841069824826
H           3.21082411877285    2.26234672707389    0.53787890539946
O          -1.40999071010699   -2.31286747885025    0.26664725305801
H          -1.26644551786403   -1.73640299382926    1.04190598876726
H          -0.53109512646240   -2.40653759221530   -0.12399302159505
O          -0.29390692339465    1.87298393113124    1.49685769563964
H           0.64720818571873    2.09588398466758    1.49591775661232
H          -0.48923524772510    1.71737726072355    0.54834917741846
H          -0.60064680371087    0.37412758116994    2.01971728316218
O           1.89567390657759   -0.73967126823858    1.23844556553679
H           1.23768828256803   -0.89703251642949   -0.17782650844906
H           2.16926077426446    0.19682198223253    1.18228614423985
H           1.09658999418197   -0.76910852342634    1.79181520095367
N          -2.18485985854928   -0.70077455832460   -1.68739355066484
H          -2.03109557672466   -1.45525669073709   -0.95754553475785
H          -1.48219238556081   -0.77569297091003   -2.47046653418780
H          -3.14431017937724   -0.63877961733337   -2.00995755316816
H          -1.79664332898285    0.20065852928659   -1.26335520059086
