    26
        -50.46112299  Gyration_radius:  2.68940312828 Dipole_moment: 4.738
 S           0.46172194412179   -0.06028060394918    0.67771319226526
O          -0.64123787197826   -0.41679754774508   -0.24048154165715
O           1.32391678164041   -1.20262731104464    0.91391777892593
O           1.35686675743406    0.96215173781567   -0.12786660663191
O          -0.01860136530052    0.58685730064100    1.86747900118678
O          -2.06618291023153    3.70337938104194    0.57072741921895
H          -2.94476850996208    3.90121331881037    0.24253801969702
O           2.84955027836202   -0.90561333194750   -1.40040682273927
H           3.13855520111480   -1.39786589881168   -0.62475556089296
H           2.46564676460633   -0.08957487878087   -1.02960445254320
O           0.77970693479601   -3.70108567827288    0.30687904719194
H           1.05888901766863   -2.82849479267991    0.67247309647933
H           0.08121592128138   -4.01479321619503    0.88305274345696
O          -0.67921207984000    2.13280913448007   -1.09243745499884
H          -1.11080074445570    2.80393730345056   -0.51303357882342
H           0.67817496956125    1.59016051636371   -0.52479609525742
H          -1.10167018658588    1.28422300890056   -0.89014312713499
O          -2.31903179373799    1.74599575600469    2.36315394948003
H          -1.49870488579930    1.24623541028897    2.14614155792091
H          -2.21451642760655    2.00879979191742    3.27955342160301
H          -2.18244150265432    3.02713055873886    1.27913520172594
N           0.50715757365396   -2.09275403650375   -1.79448357271863
H          -0.07598392395099   -1.38013994468124   -1.22566846432120
H           1.48114236150432   -1.68301743232928   -1.83218408050679
H           0.54907115693597   -2.94607030585243   -1.19251256274121
H           0.12153652942397   -2.27377825968015   -2.71439049818665
