    26
        -50.46584241  Gyration_radius:  2.39847094214 Dipole_moment: 4.268
 S           1.08326622508908   -1.45504003413411   -0.48442234896844
O          -0.08348515615832   -0.96551048620721   -1.25511339022312
O           1.47446521429381   -0.25760810854937    0.47172992823117
O           0.73152647709671   -2.58742934864934    0.33495223365321
O           2.24000806355634   -1.58337795521746   -1.34303491364237
O          -1.30138840358487    1.98906084537719    0.60437613842278
H          -1.96674413477642    2.67280074515856    0.68902047165592
O           1.27348143457029    2.38534903654494   -0.31057836242662
H           1.69874203124377    1.76460661518627    0.29583551894404
H           0.33184395534296    2.36448040255413   -0.05205713861370
O          -1.48797018785806   -2.10867746188169    1.61998409003807
H          -0.68317761466465   -2.34521925864764    1.08927410733542
H          -1.65222820088883   -2.86385361958353    2.18708880762013
O          -2.39418768784347   -0.22827117539375   -0.23357876686403
H          -2.46167048170126   -0.87100568576797    0.48593140139390
H          -1.76524133727498    1.18909606918792    0.22456463927208
H          -1.62224687191957   -0.54671182739304   -0.74808772416031
O          -0.20899156990073    0.15484968495262    2.36727177606503
H          -0.78859420905434   -0.62520112959920    2.26398359185315
H           0.85903392284674   -0.17477696777111    1.26569658627049
H          -0.65930434219627    0.90180564811930    1.93729376376355
N           1.49677156819501    0.68030424172210   -2.32545078287855
H           0.60640743956607    0.12681272510116   -2.11585896116709
H           1.59786273441736    0.97087803871531   -3.29176575492085
H           1.50608430761932    1.48743421175038   -1.63689797691752
H           2.17573679399491   -0.07479521557544   -2.04015695374458
