    26
        -50.46584242  Gyration_radius:  2.39854002308 Dipole_moment: 4.266
 S           1.09953339053356    0.14328467340758   -1.51530128578035
O           0.29337829059706    1.24457383807919   -0.93888245078445
O           0.46978101306131   -1.18004346734821   -0.92086896524774
O           0.84804758495353    0.02002296445551   -2.93422253411721
O           2.47311360995588    0.21949129797616   -1.08526323019852
O          -1.52596690182697   -0.27232594640801    1.90085097316922
H          -2.11016368306107   -0.14170757833167    2.64849603611785
O           2.58496807743660    0.61684746116142    1.49073688644479
H           3.51160884056069    0.60894012273191    1.73594591634328
H           2.57142267467353    0.53852000764016    0.50131268833430
O          -2.24504408164775   -1.46050706125833   -0.48572680054010
H          -2.12713136449884   -1.01863474459152    0.37729860393141
H          -1.40982154406048   -1.92483876280233   -0.62941908581784
O           0.05417159053591    1.78685470743906    1.62547380989635
H           0.95113350216208    1.57281904756695    1.91702027941772
H           0.12026925126721    1.74826188122149    0.64765611853404
H          -0.99203064905610    0.56787765092649    1.80935195322070
O           0.92635051531264   -1.51825668119157    1.58418869307238
H           1.56492284513123   -0.79686707743228    1.74801484920403
H           0.05760112978219   -1.20198593485869    1.88552358341274
H           0.74286219240731   -1.34766096152802    0.03476063115426
N          -1.62867314110568    0.36031552531917   -2.30829827872700
H          -0.81355991064735   -0.00341136640859   -2.87039274552105
H          -2.32208896009706    0.84404354886485   -2.86831232704329
H          -2.03799639326647   -0.39689475874181   -1.68805262232771
H          -1.05668786910611    0.99128160411412   -1.66189069614807
