    26
        -50.46584241  Gyration_radius:  2.39858286264 Dipole_moment: 4.265
 S           0.27435023701751    0.32267660963159   -1.82920268219864
O          -0.35709094381615    1.27030501536089   -0.88144323588943
O          -0.55693711121633    0.14689660284801   -2.99961345853157
O           1.66426643921025    0.64090825998386   -2.03974823154987
O           0.19413043490416   -1.08591799535756   -1.11470281736408
O          -0.45897582379214   -0.52091538234237    2.35270434994025
H          -0.66326763000383   -0.48876422181620    3.28789340748292
O           2.84304689189739    1.06907210898135    0.24799887519327
H           2.40435464283683    0.98311349994368   -0.63829642490700
H           3.77038935712790    1.22386852870184    0.06107673598745
O          -1.96215835306192   -1.83337323539206    0.44413355537972
H          -1.54596322858466   -1.37139806332533    1.19732914766606
H          -1.21512257103838   -2.14581850534532   -0.08328700154379
O           0.48378589919513    1.78029574008714    1.55982401681595
H          -0.16284204339607    0.39887525683628    2.09650730480303
H           1.43829274474567    1.72826304781979    1.41297873713406
H           0.11426688521790    1.74685752592636    0.65189772615780
O           1.76196759116312   -1.32167863289408    0.90621478668726
H           0.88566964660658   -1.19651445467719   -0.38982537851890
H           2.28284868168447   -0.49882408744042    0.82469212686009
H           1.07903737116983   -1.15971067753436    1.57922688203292
N          -2.51798819977825    0.05341788626389   -1.33018875847494
H          -1.99011223233404   -0.16629863170963   -2.21660092711752
H          -1.82805332483290    0.77955556667582   -0.95645300385671
H          -3.45524429186416    0.40413521277762   -1.49430635158023
H          -2.48265107905675   -0.75902697400260   -0.64880936060023
