    26
        -50.46584240  Gyration_radius:  2.39857001206 Dipole_moment: 4.265
 S           0.61556561115693   -0.27173500807055   -1.75306037637023
O           0.35838219834703   -1.37977422743750   -0.65428930497107
O           0.00699061021913   -0.83471170167906   -2.93816442934828
O          -0.14632575501276    0.91170765871339   -1.29040939621516
O           2.03042919556495    0.00001684011692   -1.79439620829743
O          -0.89925964138015    0.24595261886403    2.26891249505934
H          -1.27005993474882    0.56973765930840    3.09052108410904
O           2.78353073359566    1.16886346719774    0.41306807948056
H           3.73396362036087    1.28188348298063    0.36068457424573
H           2.51221879398792    0.79195276034450   -0.46416575467597
O          -2.07080220262016   -1.64779814305898    0.63632501316546
H          -1.25086193864405   -2.09202343773074    0.38307478452615
H          -1.78422049411433   -0.95833521383464    1.26598587947296
O           0.24937566318389    2.19794786695723    0.97149955279529
H           1.21232416634435    2.12750791393906    1.02745904141749
H           0.05156356759893    1.86614127840654    0.06996431983185
H          -0.53056308232576    1.04336995255246    1.79187283639219
O           1.52069592334303   -0.91474104093166    1.58861367713751
H           0.73192564392841   -0.56466020037357    2.03679857907427
H           0.90129457523584   -1.23421206418885    0.18234050448178
H           2.07513581868555   -0.14732167993942    1.34633560986232
N          -2.22846288712459   -0.44242751199597   -1.71744552454080
H          -2.34602548788001   -0.99327791097587   -0.81844499531745
H          -1.55500414828415   -0.91957960752159   -2.37425614076504
H          -3.10744670162915   -0.18786846757723   -2.15442413373861
H          -1.59436382779156    0.38338470593278   -1.47439976681382
