    26
        -50.46584238  Gyration_radius:  2.39861929238 Dipole_moment: 4.264
 S          -1.30805334174614   -0.56665790688558   -1.22213535518868
O          -1.27247713283694    0.76178853295520   -0.56719893170079
O          -2.21629320796176   -1.45912459067908   -0.54684843525904
O          -1.45214120607532   -0.42211899635933   -2.65395824132205
O           0.15678451981590   -1.14116983069775   -1.06306348089524
O           1.80458622220578    0.74231297430228    1.48667631103219
H           2.35054744207834    1.19859568701158    2.12782490748111
O          -1.81852380119381   -1.36390979510137    2.02962348929223
H          -2.40676910985495   -2.00706113520846    2.42858220697169
H          -2.03972836028886   -1.36600850725452    1.06196858444031
O           2.40043913375712    0.46724837962663   -1.19533541823020
H           2.06009647072119   -0.43238198453682   -1.28817653011014
H           2.27861122926112    0.67198429437358   -0.24814685549556
O          -0.71934683829638    1.20110100072269    1.96822464449629
H           0.85985168894010    1.00347059450854    1.68333424286277
H          -1.01956775393046    1.17424180936422    1.03484580341917
H          -1.14090988246200    0.42350642330477    2.35942053136248
O           0.75817499126373   -1.81709889274311    1.34107801276642
H           1.26255186834524   -1.01130579021987    1.54569476643722
H          -0.11271613636446   -1.72617286527367    1.77496500900980
H           0.34003236324027   -1.49433823997083   -0.13707617823594
N           0.27865736004477    1.47329221162002   -2.42169047248896
H          -0.23086333746044    0.68067943314042   -2.89571491247885
H           0.30633143430879    2.32350389923407   -2.97375542758684
H          -0.35031958944089    1.52106246632848   -1.55833791212535
H           1.23104497392016    1.16456082842661   -2.07080035842838
