    26
        -50.45854332  Gyration_radius:  2.48308978555 Dipole_moment: 7.762
 S           0.48965330668555    0.28262521597169   -1.44705243334355
O           0.16442175125456   -1.12341302192194   -1.15927973452511
O          -0.05498164045436    0.76124083137549   -2.67352775396321
O           0.16246030665074    1.11098844922848   -0.27771220786603
O           2.06429521032614    0.33195604955261   -1.56227364678312
O          -2.03778688901541   -1.41494618491731    1.97430916154770
H          -2.67713034173322   -2.06261821095684    2.27454972593067
O           2.26068884926731    2.85158736530910    0.06678688666735
H           2.57698225638847    3.16911025792011   -0.78009683541858
H           1.39282631473154    2.45242365809227   -0.10241776737287
O          -2.31554242973982    1.51099302206397   -1.34243478295091
H          -1.81024845940440    1.37147353174297   -2.15625315463846
H          -1.63286073931501    1.68684813550153   -0.68137205859879
O           2.07864265371582    0.23473023886152    1.22685304818974
H           2.60477610475412    0.99919862119565    1.48405108603238
H           1.26617858518586    0.62540757083729    0.82610655683984
H           2.39926980210232    0.21889745439084   -0.66060851503833
O          -2.48889188439389   -1.05035571503055   -0.55913517678239
H          -2.29942299855701   -1.19093407128949    1.03249613408928
H          -2.69871270802849   -0.12850234393183   -0.81939400573193
H          -1.60597652575608   -1.20806356220438   -0.93373998834440
N           0.44496083696992   -1.90949009982326    1.28037145113643
H           0.75028269674947   -2.87077548873114    1.38677399998451
H           0.35096015032097   -1.64878014683570    0.23565889360336
H          -0.52062686788959   -1.74977945905997    1.70226534273309
H           1.13578268916457   -1.24982209729684    1.66507576460518
