    26
        -50.46112303  Gyration_radius:  2.68952815445 Dipole_moment: 4.736
 S           0.63718056214866    0.46956617589775    0.22239011410802
O           0.19766256200500   -0.02745332911256    1.65604868398458
O           0.46591150075018    1.89484454541284    0.15704961312159
O           2.00698178647097    0.01541577346272    0.07577842805245
O          -0.25358903277672   -0.23750568595561   -0.72278622929888
O          -3.37447554277985    2.48725665724799    0.85856251572772
H          -4.20329272308664    2.47733689489803    0.37712262646019
O           1.73878110497246   -2.25481824216633    1.67107831443772
H           1.15151083439855   -1.50625115624753    1.88455916792911
H           2.58201217722444   -1.83605321167112    1.46843369207085
O           2.95544931335836   -1.41947550648811   -1.91150977110971
H           2.75029376938918   -0.80284215327310   -1.16947390701414
H           2.97122955980213   -0.87996284381879   -2.70328772008394
O          -1.49390941338531    3.33038358905438   -0.83267140983468
H          -0.75898885825872    2.74765475893408   -0.53234452719471
H          -2.70256729647066    2.86373557022349    0.24253474795525
H          -1.17777583097050    4.22393264230702   -0.68634886540984
O          -2.26332632174618    0.06036493215647    1.03773587182017
H          -0.80596546554154    0.03245874202432    1.61641952622847
H          -2.69558051209479    0.94471232170121    1.09570073993531
H          -1.90659080453773   -0.01188563075660    0.13938065914949
N           0.82159381682891   -2.55701953351611   -0.80252913648171
H           0.26279109734721   -1.63044093326605   -0.82810768842799
H           0.27413533900132   -3.35653856090737   -1.10048082455560
H           1.65617642063616   -2.38362777746741   -1.40719765858511
H           1.16435194733358   -2.64378804866181    0.19394305700075
