    26
        -50.45997503  Gyration_radius:  2.56943444055 Dipole_moment: 7.052
 S           0.09326112709103    0.21856326745656   -1.01604271350949
O           0.86606696270568   -0.96244861387732   -1.39747919077369
O           0.92810168190104    1.35536074545619   -0.70632051786303
O          -0.94413876689940    0.51438450903107   -2.01260913117700
O          -0.72817171092030   -0.17329062680423    0.25122877468103
O           0.67747232067792    1.97227384151094    3.15260439876815
H          -0.05528412078633    2.01246958917918    3.76890511497766
O           2.86220576595067   -0.34407107518529    0.28764847322526
H           2.31321044675571   -0.77352867712915   -0.39184895805596
H           2.76983545525664    0.59489053817626    0.09064952344261
O          -0.55401873275830   -3.06387662781236   -1.92463175853032
H           0.07306221678367   -2.33294182756668   -1.67411868054099
H          -0.27257010744153   -3.35513316450197   -2.79380597956744
O          -0.16075302529485    3.13749668553998    0.88604366693537
H           0.26798016448536    3.96054314292183    0.64411714624671
H           0.18156806787201    2.46651859780468    0.25306807302179
H           0.37768975816191    2.44442594356067    2.34268770454413
O           0.91736663102655   -0.48273824532713    2.10878990720191
H           0.91747900374741    0.38574874683543    2.57483658571147
H          -0.07057801576892   -0.32539518020651    1.04983723950026
H           1.76070166542808   -0.51934296721813    1.60044284407174
N          -2.49513336511012   -1.36716948859981   -1.42235670167361
H          -2.51596941895947   -1.26435832627438   -0.40816339152019
H          -1.88178628676737   -2.19487475983557   -1.66827347514124
H          -3.42558498985184   -1.42209763580374   -1.82242897836665
H          -1.90201272730036   -0.48140839132702   -1.77277998561270
