    26
        -50.45997515  Gyration_radius:  2.56972361566 Dipole_moment: 7.050
 S           0.18536709049700   -0.51056566153128    0.88999773544606
O          -0.56691288517997    0.55008501971611    0.02777218528993
O          -0.24755447255586   -0.20138382412881    2.25898440022686
O          -0.30621699806022   -1.82094127417868    0.46725468803151
O           1.60775420057108   -0.35850293101660    0.69324348049591
O           2.11852727705614    2.21499714343096   -2.21295822211501
H           1.73703202137854    3.07110922723704   -2.41274307745377
O          -2.85893956779210   -2.16260749757727    0.74470089253492
H          -2.95860737164184   -2.96992902753023    1.25247498436597
H          -1.88788230503072   -2.09823785577482    0.53705835847880
O           1.46311237451945   -1.96446205487802   -1.54679138298361
H           0.76057914686412   -2.16855031869492   -0.90460386727115
H           2.14735506527460   -1.55181884262814   -1.00777192366592
O           0.26023237477530    0.28880660124342   -2.31796090449202
H           0.71680701476269   -0.58200740815225   -2.25394034825310
H          -0.25663742171409    0.46261073783912   -0.96681702983209
H           0.97282483200218    0.96512207491187   -2.39670772702500
O           2.44304048817537    2.11916812802980    0.44832972596906
H           3.34696117241938    2.09367591344550    0.76791710902330
H           2.27861317919023    2.20826386207745   -1.24184581818392
H           2.08603202311400    1.21433180418752    0.59668896577713
N          -2.65603777467828    0.26282870019587    1.73199814755654
H          -2.95598413713642   -0.69318555891802    1.38850905020187
H          -3.27810873157268    0.65281731255654    2.43185741439071
H          -1.60774700986874    0.09850669041807    2.09722254956821
H          -2.54360958532241    0.87986904973940    0.92813062389366
