    26
        -50.45997499  Gyration_radius:  2.56924857365 Dipole_moment: 7.054
 S           0.44545412522464    0.02730857423256   -0.94330887522790
O          -0.06939102932696    0.56254483855867   -2.21035087326471
O           1.55307230806531    0.78564002679264   -0.41112225640251
O          -0.77350822852896    0.15619244135426    0.02205561965165
O           0.74144498953614   -1.39979223678825   -1.05807233985630
O           0.54204502447066    1.96443200376483    3.18293502001146
H          -0.24710315000872    2.36595988516037    3.54947000503227
O           2.27911024603775   -1.37638464839669    1.14260252706071
H           2.63344393549793   -0.50957864108210    0.91434470041818
H           1.80910406791391   -1.64924936063569    0.33501406083947
O          -1.21070904853005   -2.84385065404305   -1.95965921953531
H          -0.84878656488952   -3.33610949473321   -2.69870822769279
H          -0.43360684557233   -2.38363154152791   -1.54183789063880
O           0.89658081002012    3.04620987068683    0.75370652409273
H           1.67047185625061    3.60135316588309    0.64052739860419
H           1.09396016701210    2.21670951844475    0.26283787525778
H           0.69124415610728    2.40199245071914    2.31407087796485
O           0.03318541386799   -0.51045021422908    2.29361142855129
H           0.89146061238222   -0.93661154762749    2.06402452550692
H           0.26109074548647    0.34528248110389    2.72617765514802
H          -0.47811745832963   -0.12862798494782    0.98372036313187
N          -2.34821436915862   -0.48009688006700   -2.09097966480104
H          -1.37538726418604    0.05360285389988   -2.25807203779254
H          -3.07431598839708   -0.22653239349651   -2.75224698091993
H          -2.08392389910401   -1.50503028674491   -2.12890383803818
H          -2.59860462177146   -0.24128219630258   -1.13183640708508
