    26
        -50.46492019  Gyration_radius:  2.39778726074 Dipole_moment: 3.484
 S          -0.63200917572901   -0.83897507927888   -1.01617142435331
O          -1.20481129641492   -0.74492267538506   -2.34956252906808
O          -1.26039832641917   -2.05432281009869   -0.27425531037983
O           0.81208363560831   -1.02869061813555   -1.04057521692432
O          -0.99499794218379    0.36205034698036   -0.25125333518150
O           0.72281026454036   -0.39201788512488    2.85050218892514
H           0.83608599766030   -0.43076002759987    3.80123947493659
O           1.82227313374870    1.33203961431769   -1.57272959611722
H           1.66546158750743    0.36644476555576   -1.46748532095857
H           1.73544243987248    1.66803559487643   -0.64932185699061
O           0.98217410887653    1.73602350730530    0.91166467020229
H           0.17788346508277    1.31331338901489    0.55260561477856
H           1.24564936386828    1.15760758632443    1.63825275630599
O           0.83151132381327   -2.52474113545190    1.14407333116080
H          -0.53535501829698   -2.38263889551188    0.34158468564275
H           1.26208621432581   -2.13231646234379    0.36662964185317
H           0.89139382490974   -1.83912653759181    1.83893371351666
O          -1.84131319306211   -0.41660131204016    2.12934079483813
H          -2.19126644635930   -1.29434557277754    1.95886547726470
H          -0.24939333734681   -0.32841251023831    2.68666270393054
H          -1.64946489856385   -0.03996277774137    1.24380166027010
N          -0.49882102791281    1.73305710493229   -2.59712863103019
H          -0.56446110696845    2.19819319150931   -3.49734632571570
H           0.54493963151870    1.66075818939106   -2.22223311173931
H          -1.05788467617483    2.20406092289262   -1.88858350077332
H          -0.84961853590377    0.71625008622225   -2.63751054439469
