    26
        -50.45854329  Gyration_radius:  2.4830957656 Dipole_moment: 7.761
 S           0.72222800145269   -1.07762935793391   -0.85509037799119
O          -0.72253788717966   -1.28839517307912   -0.67140046859257
O           1.50756286434305   -2.24682681244303   -0.64026569919718
O           0.89292588100053   -0.64829663132385   -2.36567037867884
O           1.15128282937418    0.08967252806667   -0.07160532715237
O          -2.04471771647415    0.74982894583988    2.30359779751744
H          -2.78695274869107    0.64340554321882    2.90039722616724
O           2.82989944581416    1.54906141996865   -1.68502426556185
H           3.40106198996457    0.96850571684784   -2.18975801083563
H           2.44931181374538    1.00437967320225   -0.97816977201659
O           1.70375461066991   -1.59329663311037    2.00116776376253
H           1.83794200908309   -2.19978117821934    1.25865531683702
H           1.71677683287189   -0.72139241379217    1.58450847626363
O          -0.01803468926325    1.86196058789563   -1.55314174284022
H           0.42644351392348    1.33043994212170   -0.85084520066365
H           0.66569276899044    2.46801830091651   -1.85738092495473
H           0.53942163511186    0.25131230607648   -2.42666278095552
O          -0.98028855339964   -1.60425080649686    2.01924339832424
H          -0.97059120431047   -1.69240932771905    1.05131356972743
H          -0.03617825522840   -1.67104938482737    2.27559499048357
H          -1.57004882257276   -0.13357373106642    2.29973440065745
N          -2.17271825342745    0.81402288812899   -0.31740523712858
H          -3.10400622876968    0.76268311500258   -0.71571305550545
H          -1.61658155110888    1.56268059164509   -0.75400537624535
H          -2.19875157381170    0.91836023368525    0.74291143783667
H          -1.62289671211973   -0.09743036259663   -0.50498575925305
