    26
        -50.45997517  Gyration_radius:  2.56976346907 Dipole_moment: 7.050
 S           0.57569092415572    0.02713100428682   -0.86886744432717
O          -0.65260753517255    0.44601027231090   -0.00275385272457
O           0.52100339193327    0.95711485786452   -2.00434963165346
O           1.77827303751906    0.15909184478941   -0.08060721397773
O           0.33378337332347   -1.34749852017165   -1.30399818400169
O           0.68633058323460    0.92825060268125    3.60009673208425
H           0.05437069655020    1.53459660928657    3.98917216197009
O           1.37046860907122   -2.36760563614002    0.95252220659653
H           2.05665308359269   -1.69103773396994    0.97246586183460
H           0.97779701175558   -2.26670859137788    0.06751008038527
O          -1.82955932976520   -1.68210424627322   -2.68871546045886
H          -1.55557382234278   -2.12402641234345   -3.49440873596522
H          -1.02110048589429   -1.66303197589136   -2.10885851697338
O           1.82757483575715    2.22097075130244    1.54508619153147
H           1.78020946901143    1.49424876690837    0.88343742228019
H           1.13371813791769    1.42711132231807    2.87919249996032
H           2.76021689460294    2.42612150763247    1.63421571887349
O          -0.55035453228651   -0.91084038717280    2.09575838666739
H          -0.09670597957612   -0.31955978399101    2.74070582258843
H          -0.65235542303770   -0.11211371058843    0.88132113600830
H           0.11231590290579   -1.59331159828534    1.83886391011157
N          -1.96654092608627    0.91583984750725   -2.32764524309052
H          -2.42129216196401    1.56175598037318   -2.96389845937095
H          -0.85175893513569    1.03517427761145   -2.27947533723701
H          -2.27065016922596    1.04510045069927   -1.36309473809082
H          -2.09990666081642   -0.10067946935407   -2.59367533305694
