    26
        -50.46492023  Gyration_radius:  2.39774860042 Dipole_moment: 3.485
 S           0.58228996411760   -1.16598593132964   -0.66084038075713
O          -0.49851011820823   -1.72364346660166   -1.63202812646665
O           1.87797016958473   -1.72156269488131   -1.01774750748392
O           0.61537234206646    0.29083937186576   -0.85029687647846
O           0.18206524995869   -1.50941171782955    0.69708884234107
O          -2.75071031168038    1.08580473821886    0.23629579264095
H          -3.59297734327241    1.54216470538231    0.21236380657127
O          -0.13113578925993    1.82390249176980    1.20937941436422
H          -1.08636396238401    1.68818198969077    1.24107937231154
H           0.14420793670071    1.37485366915209    0.38650100907510
O           1.56587495296562    0.07590072978917    2.26160721817216
H           1.03623314766948   -0.66250977049209    1.88434370209575
H           0.97603183039241    0.85546830030682    2.12967542126183
O          -1.57676502334391    0.98931760026156   -2.15287118558453
H          -0.69062328639235    0.81736179332556   -1.76814093826630
H          -1.78750016388266    0.20208036431447   -2.66060590687748
H          -2.36175292277758    1.16814253818216   -0.66811431877137
O          -2.39520749083486   -1.62124225758794    0.10043050347803
H          -2.65423478197102   -0.68535994377017    0.21632508623399
H          -1.34165125619415   -1.76203895882509   -1.08396579233223
H          -1.64607445967149   -1.75098149277026    0.70522523052700
N           3.14885054677619    0.15007291256395    0.24011018834751
H           4.14934919137463    0.07582594583336    0.39681732988501
H           2.91214138823303    0.98600353546565   -0.29056166433296
H           2.76063764161265   -0.68558579346230   -0.31623672491519
H           2.56248254843550    0.16240135142623    1.18416648494760
