    26
        -50.46492022  Gyration_radius:  2.39775958026 Dipole_moment: 3.483
 S          -1.34206370230604    0.15606196077041    0.55684251147774
O          -2.33814544104201   -0.41415593531483   -0.49433638396299
O          -0.24634238318046   -0.81560929716598    0.67732448009168
O          -0.85534594484574    1.43678659765602    0.06203050927512
O          -2.01670193637437    0.27387402490245    1.83978344088694
O           1.06039598075143   -0.62762929164907   -2.69866992453837
H           1.43112975547753   -0.96833432851207   -3.51392729649854
O           2.19022071202623   -0.03928766698648   -0.10405869428799
H           1.35204975143655   -0.44335976491225    0.19377083084997
H           2.10708354026965   -0.01056925223307   -1.06534902352611
O           1.32137587242466    1.94012599455763    1.43503060138045
H           0.50480147209254    2.00391656563026    0.88992686222989
H           1.89682994781577    1.34776070885715    0.89548765317498
O          -1.25472968257563    0.80892304117680   -2.47907177781045
H          -0.41366933811105    0.35859610093399   -2.69421157936002
H          -2.05111349368170   -0.00630323168244   -1.36843625716519
H          -1.02944896590015    1.43784251866887   -1.77372013449813
O          -0.37965072130080   -2.45073918810655   -1.39581062588801
H          -1.31367922586864   -2.44312897494491   -1.61829528951343
H           0.61407419999060   -1.38883040239210   -2.25432840044913
H          -0.31461811348662   -1.96857541378219   -0.54366718881398
N           0.22366401813604    0.35661585024786    3.13360345208593
H          -0.77567020206553    0.33786363790547    2.73412029416721
H           0.23934964934586    0.60534393247969    4.11795947544565
H           0.61680667307934   -0.56863254411277    2.97290073619254
H           0.77339756789517    1.08144437798226    2.49510172906385
