    26
        -50.46243624  Gyration_radius:  2.53438965003 Dipole_moment: 5.578
 S          -0.23597880287518    0.70646798948686    0.83919416160369
O           0.14663098388160    0.60128016795057    2.34182061183412
O          -0.35362651197897   -0.68109456157765    0.33662332953875
O          -1.50371463993167    1.39903624793106    0.70504807672319
O           0.85691696046041    1.39742771300911    0.18836446043011
O          -3.03449557130437   -0.69717619512369    1.12433363652930
H          -2.65455861521504    0.18019590308662    0.89950254934121
H          -2.42454780098235   -1.32277193083765    0.71952086044307
O           1.91166802242978   -1.97461567647199    0.06612479557820
H           2.17535291502797   -2.23367794812162    0.95054862151013
H           1.02362918524728   -1.55464748987426    0.16515210259503
O          -1.00734044197021    0.47122845119453   -1.89721628275523
H          -0.82086749126890   -0.13257049517919   -1.14181236973290
H          -1.34561813034508    1.25986463560298   -1.45711838646911
O          -1.97908370104024   -0.34137762836982    3.51271458010089
H          -2.49281295816179   -0.59427161281922    2.70303068275714
H          -0.62495469818352    0.20928947225283    2.83841828646613
H          -2.44212289927602    0.40643202855621    3.89627085015763
O           2.86879102872273    0.26867129066644   -0.94386443454095
H           2.71352853046406   -0.64946686176161   -0.61405263170815
H           2.11181362710595    0.37555980763732   -2.13048009850032
H           2.24866026677767    0.81252998140926   -0.39074539038834
N           1.39448975761885    0.49543291826388   -3.00300236636621
H           1.45166558309949   -0.30341459403699   -3.62648633031682
H           1.59972913295189    1.35385257880763   -3.50346002232622
H           0.41684627878201    0.54781581831808   -2.57842928250828
