    26
        -50.46050458  Gyration_radius:  2.59212966482 Dipole_moment: 4.564
 S          -0.94854935881394   -0.78233850484310   -0.31990045501117
O          -1.82871221532425   -1.52376666681421   -1.23267763722496
O          -1.47549900572050   -0.66214476428237    1.01558052740495
O           0.40575910851681   -1.34172716757088   -0.33503859175439
O          -0.85549275710736    0.63066557672034   -0.97627687520664
O          -0.28536246640264    2.61594441422202    2.82991810612084
H           0.43006100406542    2.95989682181334    3.36786660362336
O           1.88161099352457   -0.10060554350332    1.52424026719112
H           1.34296175811124   -0.17991086363377    2.32299009636605
H           1.45586593148013   -0.68310286709046    0.86634109816397
O           1.48741006606326   -1.56754830499164   -2.67662674174187
H           1.78999836752030   -2.47477444828972   -2.74377728212889
H           1.18155539371349   -1.45743115586902   -1.73607562696568
O           0.72890669538378    2.00984048261983    0.39984162119279
H           1.32824408561483    1.31846568513940    0.77466465303673
H          -0.22545070925024    1.22861134878411   -0.41305704477371
H           0.25369832997897    2.37596908280418    1.17642544491331
O          -0.33722445244349   -0.06843987657644    3.27117517898205
H          -0.78231495573511   -0.30591454940700    2.41863872855430
H          -0.37638639596703    1.67055415919178    3.06552767772799
H          -0.86080544197090   -0.48322391062826    3.95828767904152
N          -0.86817566392042   -0.62832097410076   -3.36553161924484
H          -1.39007374177263   -1.08980702353755   -2.47975550060317
H           0.11525229428993   -1.01422665518767   -3.31383170359289
H          -1.32431051958239   -0.81386681232454   -4.25228505319894
H          -0.84296635424744    0.36720250737381   -3.14666353089153
