    26
        -50.46492029  Gyration_radius:  2.39771461682 Dipole_moment: 3.483
 S           0.16737568753051    1.29512454533698   -0.65521965190979
O          -0.91021668762375    0.30595346242916   -0.51493235634918
O           0.08575039094206    1.90368686647411   -1.97351161905266
O          -0.07659030281728    2.38591670171298    0.42779066721876
O           1.46869361722157    0.69328155348282   -0.39745444392638
O          -0.16168792962461   -0.88248469309036    2.82762998711654
H          -0.36292763233666   -1.18416622693708    3.71461064953092
O          -0.22849702072168   -2.16730226534996    0.23898465262037
H          -0.60210354696804   -1.30295852686286   -0.02156603931025
H           0.00435365091217   -2.05057482986183    1.16850511510686
O           1.46931622524717   -1.57522071041548   -1.71285787674733
H           1.72150119569302   -0.74983816630538   -1.24041841834617
H           0.94699484542786   -2.06330312893438   -1.03316668242089
O           1.41648853174069    1.25605364347529    2.18923941673103
H           0.94048244601567    0.47690010861695    2.53964983220976
H           1.86294887472600    0.93759947620022    1.38732134923201
H           0.47213373019722    2.09101044562059    1.21822497972392
O          -2.06509474335159    0.69242714929883    1.83173749777696
H          -1.77640769347645    0.54358946885921    0.90581499090331
H          -0.95096136952475   -0.37502088808354    2.51849902865196
H          -1.92180154669676    1.62815516143534    1.99245799034648
N          -0.31525068827833   -0.38089911123609   -3.12250887080787
H           0.46865386000919   -0.97976484681788   -2.61077954451411
H          -0.15492002643567    0.62939034551440   -2.78758333363827
H          -0.27698873757038   -0.46098505096749   -4.13404305766747
H          -1.22124511024237   -0.66657046359067   -2.75642428247996
