    26
        -50.46507293  Gyration_radius:  2.554125968 Dipole_moment: 4.272
 S          -0.47334494103884    0.85743837642663    0.16984685801042
O          -0.76390083152211    0.24711417836646    1.45958563679870
O           0.48237742563953    0.04002850327257   -0.59006150777939
O          -1.78295855655485    0.91107115315368   -0.65760863490306
O           0.03233066593907    2.21920995071007    0.29718418053488
O          -2.39504113908407   -2.86862314616826   -0.50710151317047
H          -3.00325208596292   -3.42266059802437   -0.99847129067468
O           1.66824542279807   -0.48829534354322    2.05686138996520
H           0.70844234159378   -0.27020916283892    1.97616806634978
H           1.82739236547763   -1.13960338265748    1.36826208490511
O           2.87971276415154    0.83827789560505   -1.35274896611472
H           2.77864406563198    1.29752166352785   -2.18784175023997
H           1.99884112368478    0.44211047569315   -1.15572713007453
O          -3.17513695385405   -0.64703744214228    0.77317068285116
H          -2.48283471905055   -0.50750568630234    1.43885821489121
H          -2.45707393443694    0.34197190664676   -0.14761143681255
H          -2.98950702922874   -1.53190718493250    0.38348332434742
O          -1.04465031510296   -1.34895371469454   -2.25408163638689
H          -1.66129111296819   -0.64761656647906   -2.48140152998518
H          -0.38442548938399   -0.91726958570637   -1.67278637109440
H          -1.83165662649043   -2.41404893246072   -1.17471509657602
N           2.44926801653818    1.82894086380637    1.07237080867631
H           2.29718960701594    0.92181099549705    1.60263903297096
H           2.90533577400825    1.58801652563218    0.16306232993937
H           1.45585585070272    2.15017588227498    0.81008438693832
H           2.96143828153988    2.52004235521355    1.60857984665059
