    26
        -50.46294018  Gyration_radius:  2.65584819807 Dipole_moment: 5.940
 S           0.25461233079667   -0.58327394556249    0.16496975505765
O          -0.33004446639720    0.74167957057728    0.45890811654932
O           1.66933140169588   -0.42872872204477   -0.17436690584844
O          -0.01815274836059   -1.54509448399352    1.20025322006838
O          -0.39667663795183   -1.03833876978026   -1.17358194858872
O           2.53408729413430    3.37463779007848   -0.77594365183468
H           3.46980934814006    3.42424526285518   -0.97739788496426
O          -2.59074730507396   -0.22579073914471    1.53027697522773
H          -2.23279060378001   -0.86443712377563    2.15327457200918
H          -1.81756688833881    0.26955401663316    1.20308117057307
O          -1.55891393194898   -3.69733359084891    0.84341260556535
H          -0.95374910438997   -2.96634060791645    1.08342797802356
H          -1.00248658861436   -4.40761731957005    0.52102009419396
O          -2.74878131402149   -1.78544550389183   -0.63664129517651
H          -2.54395043036820   -2.63731313663124   -0.20089897565898
H          -2.94165494300860   -1.16935461535751    0.10592976917429
H          -1.37211140522488   -1.34539125377566   -1.02413796164752
O           2.17226344327666    1.76774167557426    1.29354633223774
H           1.25557786700504    1.84968654545308    1.57687603872270
H           2.20743013516638    0.89476501089775    0.85690080654742
H           2.46464320904690    2.91281727917506    0.09935498795190
N           0.89282726153609    1.51589807617490   -1.67734090146466
H           1.42025412503951    0.64251122296470   -1.40362938250273
H           0.49060899424359    1.45959977924600   -2.60708546807679
H           0.15666808898533    1.48659955684344   -0.91742306307354
H           1.51951286840417    2.35472401579590   -1.52278498306679
