    26
        -50.46294016  Gyration_radius:  2.65587406123 Dipole_moment: 5.944
 S          -0.46408316561002    0.44175336731528   -0.14629508591146
O           0.10305662131598   -0.92185079043171   -0.09467525526548
O           0.75531363774430    1.39407213259887   -0.31647275345762
O          -1.38215830977713    0.61280186146395   -1.24135230510514
O          -0.99980563399707    0.79821963181324    1.16760584618946
O           0.18557349955216   -1.80173020282785    3.88985673101254
H          -0.20320905774067   -1.53602537351723    4.72466900046008
O          -0.91960045796058    2.23541847993454   -3.31180216360721
H          -1.21265192941572    1.63793803563369   -2.59388891364803
H          -1.24469270238153    3.10672497338289   -3.08130104547873
O           0.33228769433934   -1.18710221384643   -2.75408920287079
H          -0.54864281430283   -0.92446824478669   -3.03537704274774
H           0.27943444626634   -1.25163167095961   -1.78283095434636
O          -1.65352470200663   -1.67634992272884    1.99278158145852
H          -1.64071781879238   -0.72162535719419    1.78695900094218
H          -1.29290405430395   -2.09002542549081    1.20150177162473
H          -0.56978021606646   -1.90898690408212    3.25572588446845
O           1.50435348461956    1.21678409297216   -2.72200556079136
H           1.27586040450930    0.27396839379047   -2.88666001205922
H           0.78082515388823    1.72141093412245   -3.14569189240696
H           1.12081833929803    1.35753882900720   -1.28241434995512
N           1.20667958738046   -0.14787941179678    2.10544548212049
H           1.07303688986821   -0.68793671054677    1.20493359927411
H           0.40546757490056    0.53064514179979    1.98910963259249
H           0.99877356381936   -0.78297620117315    2.92616469269605
H           2.11028994485786    0.31131255556117    2.15010332480739
