    26
        -50.46507301  Gyration_radius:  2.55374510516 Dipole_moment: 4.270
 S           0.14511780658570    0.84340041918188   -0.50890433023037
O          -0.59994594737773    0.15002281859607   -1.55032875264386
O          -0.74755560339229    1.97008834622867    0.07072114519757
O           0.46209654019354   -0.06791393094083    0.59931074653220
O           1.36948596598958    1.45578075786990   -1.01102871559179
O          -3.58165642909076   -0.39470623125940    1.11042546876368
H          -4.34403883151894   -0.24621184788073    1.67173549149537
O           2.90296915602504   -0.71464633357686    1.36871702810113
H           1.95155709724493   -0.52170865902747    1.19778678947356
H           3.20006019157709   -0.04110423482297    1.98238248881032
O           0.76676588357306   -2.07377372851024   -1.53538544515201
H           0.16580252086941   -1.30042586118240   -1.66237113800383
H           0.56226424931003   -2.39703701068754   -0.65364015839507
O          -1.39900670661020    0.45550535555873    2.41336043730676
H          -0.68328560234443    0.15677380740403    1.81443962822983
H          -1.41848234769878    1.41070257760229    2.30850131289984
H          -2.78911437162930   -0.18865582318424    1.65744250137702
O          -2.95297721959647    1.22770613559595   -0.92780457396581
H          -2.40177013484764    0.67494710367462   -1.50449369343408
H          -3.31337351068925    0.61670629051428   -0.24501069737317
H          -1.68096595886020    1.80465159983505   -0.30336656208115
N           2.91931011839011   -0.57377521964151   -1.28238507666247
H           2.37602006328709    0.35553838720098   -1.27693506472381
H           3.22366698956021   -0.71554526368819   -0.29243722210188
H           2.18004712593026   -1.30527843061905   -1.49648008401836
H           3.68700895526094   -0.58104103427366   -1.94425151370672
