    26
        -50.45854335  Gyration_radius:  2.48301048904 Dipole_moment: 7.763
 S           0.73543681650648   -1.28530289631106   -0.47010237227234
O           0.49957688545366   -2.51398315634658    0.49420986142750
O           1.77059796478810   -1.63729640407795   -1.38361245588298
O          -0.56601754956068   -1.03821080433374   -1.11089824546558
O           1.06832526124286   -0.15939072837634    0.41418745852358
O          -1.63394211536512    2.62692371680477   -0.68956826913911
H          -2.19954216370944    3.21312399104947   -1.19440421240429
O           2.36803842485989    1.00820217259599   -1.67921830426482
H           2.11606929934526    0.96894828562510   -0.74703715061020
H           2.46824636852984    0.07718205321959   -1.92479544200441
O           2.04359878347840   -1.24626784914528    2.74186345364496
H           1.93664544856293   -0.77235751861958    1.90212624086690
H           2.60291889059632   -2.00067764799848    2.55199688819948
O          -0.19404486843838    1.32127893752561   -2.41474241367673
H           0.77588352767253    1.42296768165594   -2.31216550803139
H          -0.36608109884637    0.40232673882973   -2.14878017551347
H          -1.00048641087456    2.22198712706202   -1.35348890946672
O          -0.71844811855166   -0.68358492142052    2.21329724067314
H          -0.03967747143954   -0.30125006586289    1.60796934465608
H          -0.03600483125430   -2.17592548201920    1.22690902250653
H          -0.25080396828518   -0.80039492303051    3.04696060365091
N          -2.31051710006337    0.27543806668981    0.26025971234267
H          -1.63673949235964   -0.31623457112867   -0.34308155956616
H          -3.27332594062588   -0.00318322224777    0.10536341247775
H          -2.02194837249959    0.10879228125343    1.23459524947427
H          -2.13775817916419    1.28688913862221   -0.02784349014813
