    26
        -50.46294018  Gyration_radius:  2.65579690241 Dipole_moment: 5.946
 S          -0.60310129361463    0.25934424673070   -0.02130075226206
O          -1.93538732314048   -0.28433139582331    0.00569359130165
O           0.41039629174389   -0.70957980471735    0.44527666029591
O          -0.19909410833242    0.61363553846158   -1.48219577141186
O          -0.43927134241601    1.52266024070575    0.69822168572189
O           2.97796531592362    1.55130550989299    2.67117211203853
H           3.02974108302055    2.38780629214660    3.13617509742276
O          -0.74007741937020   -2.83692364540171   -0.71522060134382
H          -1.64621403991676   -2.73672458083852   -0.41026225364341
H          -0.22968276314193   -2.17427507605033   -0.21460696008466
O          -3.38675642371968   -0.73561201015055   -2.19060693208713
H          -3.86555178199384    0.06809390540586   -2.39780304371976
H          -2.96620883266273   -0.58416491667288   -1.31977979048294
O           0.56013451315595    0.52657682810252    2.98727481595087
H           0.57249606795336   -0.37491201385231    2.64906843797150
H           2.12908545027991    1.12705257804676    2.96039810147801
H           0.05969142475374    1.02511994701622    2.31266211208713
O          -0.86824249761188   -1.34411020315416   -2.93092154161578
H          -0.73042883046263   -2.07143919421035   -2.28267259275966
H          -1.83679784572280   -1.20452918870936   -2.93965263576818
H          -0.43474449684512   -0.15788975048355   -2.12800267839206
N           2.07657719621691    1.24676104578643    0.21035643957325
H           1.72130432000647    0.24990037059855    0.22905048781306
H           2.63047228261528    1.43543433395034    1.09236722881277
H           2.57038569458003    1.46475575243565   -0.64871284923850
H           1.14330935867085    1.73604518079932    0.28402163232085
