    26
        -50.46294018  Gyration_radius:  2.65589839207 Dipole_moment: 5.940
 S           0.49320439175133   -0.39059630907220    0.19067381561722
O           1.25817015824139    0.32271832476180   -0.96203629657240
O           0.98707631221479    0.27477328449759    1.39644267938109
O          -0.93114371484378   -0.05243023709706   -0.01107034450916
O           0.73288457007133   -1.80880123483889    0.14027087934289
O          -1.60671240678618    2.97751924678618    2.63965768263144
H          -1.24705347086059    3.37082699818204    3.43628377039590
O           2.16710881068222   -2.99348984154012   -1.77575812432814
H           1.65339747004591   -2.67053444756071   -1.00760396149079
H           3.08557358982801   -2.98666344630573   -1.50286808709267
O          -1.36158128553061   -1.93232029852339   -1.87546752050764
H          -0.99461231685351   -2.70502270399163   -1.43682218401567
H          -1.36821540466495   -1.23413450696243   -1.19520334937272
O          -1.32840747668301    0.34991952010328    2.76227129238243
H          -1.82790411497035   -0.03609982918757    2.03509615677166
H          -0.39640867866766    0.25057868752847    2.48750286215490
H          -1.64179693090371    2.00017150912778    2.80634268898555
O           0.85573116995322   -1.02173362074594   -3.06169570091034
H          -0.05369936216165   -1.34363231511588   -2.86797784335321
H           1.12197873771524   -0.17345747391673   -1.85849702522756
H           1.43306866770034   -1.78745480309752   -2.86703490465526
N          -0.20381381982504    2.37241076372096    0.48844220674883
H           0.12916178785805    3.01691910943398   -0.22086050138896
H          -0.76630840728264    1.57580009084468    0.07699421576465
H           0.57116369658906    1.79727448629565    0.91811647182779
H          -0.76086199261419    2.82745902666162    1.26480113141012
