    26
        -50.46243564  Gyration_radius:  2.53375652445 Dipole_moment: 5.580
 S           0.71881440782083   -0.33153734001821   -0.79447840377400
O           1.79306208944930   -1.18627630454088   -0.32580281972430
O          -0.46931504933144   -1.06985493054080   -1.16677072009011
O           0.40102562579992    0.69739688891888    0.22148733229372
O           1.17525162247522    0.43270927924516   -2.06849844961548
O          -1.78270706008911    2.07622723707570   -0.23437917902870
H          -0.93955385536820    1.61233159995203   -0.01380413665619
H          -1.56102326727202    2.69949726250881   -0.92813961334267
O           3.07363420762942    0.66419327099928    1.03407430536391
H           2.27697083274807    1.14644213719408    1.27919685468337
H           2.73194357583414   -0.16698198691757    0.63788669584083
O          -0.10365313913172   -1.34614332460123    1.74236525443219
H           0.07511317655619   -0.46773398267347    1.33439069420025
H           0.49597668667439   -1.92789257484174    1.26087429678267
O          -2.88287705457337   -0.22786554354691   -0.90403892599924
H          -2.86311455323841   -0.90790918902145    0.33247027056767
H          -2.67594798796989    0.71425500413922   -0.69053807003967
H          -2.00991674525483   -0.58251544309810   -1.21792705121163
O           3.48136160489564    1.46622880830686   -1.44283553674394
H           2.04484596202603    0.88185554950208   -1.87427918519526
H           3.46010732745303    1.29205461251069   -0.46670552102301
H           4.15551720015404    0.88437234781658   -1.80019198684002
N          -2.70950922089638   -1.46760402250302    1.30903311531321
H          -1.65612858688549   -1.48560648900278    1.47830898802792
H          -3.06176533618343   -2.41526622868338    1.22356022215003
H          -3.16811247332597   -0.98437663818395    2.07474155961151
