    26
        -50.46294018  Gyration_radius:  2.65580828915 Dipole_moment: 5.948
 S           0.43138618981222   -0.16224220905881   -0.46850929900383
O           1.15702201215445   -0.88002390060218    0.70669862734573
O           1.38133083008288    0.57205673351394   -1.26204521257782
O          -0.24706746914503   -1.25105579209852   -1.17177395141227
O          -0.57279061673928    0.71758411619246    0.16498380561796
O          -4.06080544515515   -1.37611855561360   -0.16318127181680
H          -4.46266631574991   -2.09052088455339   -0.65998690398121
O           3.97602951234978    0.75481278755118   -0.65538187330507
H           4.42424717005483    0.00661471375970   -1.05202952130858
H           3.05839405346035    0.73281439739242   -0.99550947434390
O           1.15436052672082    2.69524109543396    0.71418746874401
H           0.41077801002303    2.08579235475180    0.55347272498342
H           1.57807261699498    2.80341054157099   -0.14190626718249
O           2.73801190258196    0.79833252962674    1.73760376867233
H           2.21649481606304    1.61826411371685    1.58291307632837
H           1.81279443444394   -0.23888493596511    1.18301644656778
H           3.42472594964317    0.81002994070226    1.04053033191988
O          -2.52245925711175    0.04937685239597   -1.77511796308706
H          -3.64331321526736   -0.77517138552588   -0.83309558453912
H          -2.25272494031278    0.84395093432322   -1.30270508483272
H          -1.71531299396125   -0.50029921842719   -1.79284018003120
N          -1.67613074085194   -1.47461585617770    0.96161872729898
H          -1.43154066325574   -1.94520336189977    1.82654191407551
H          -1.08794161166763   -1.78795027962432    0.14209412658742
H          -2.69796874342753   -1.55147030661484    0.69670432944070
H          -1.39292601175744   -0.45472443476659    0.96371723983322
