    26
        -50.46507293  Gyration_radius:  2.55488548978 Dipole_moment: 4.279
 S          -0.06482495112095    0.80299161743939   -0.58239053193364
O          -0.34617888404761    2.06026931648492    0.27917085640851
O           0.70902679909656   -0.12644684140904    0.25199784047262
O          -1.33780554362086    0.21129945780137   -0.96972981210045
O           0.73197037873947    1.21653220573580   -1.73152910438372
O          -2.37718405374254    0.17415372467970    2.92822270615353
H          -2.67293695623463    0.44978638541142    3.79706440458156
O           3.06594991218619   -1.12854995892711   -0.38696180236687
H           2.21172262848562   -0.79471850293412   -0.02557981558788
H           3.73289358371037   -0.50262298762743   -0.10093153413430
O          -0.46423761905816   -2.19041032077610   -1.49897920518179
H          -0.18009530924786   -2.46939997230685   -0.62427102922103
H          -0.93863929681049   -1.33764606089596   -1.34655681196402
O          -2.80311199535705    1.64427703637578    0.72844917925360
H          -2.79168935480639    1.10783960429988    1.55401406034883
H          -1.34185293287891    2.03210672224337    0.49461950924803
H          -2.73400141015898    1.00363075152995    0.00267782368852
O           0.24375444866468    0.69903096547984    2.72832982832340
H           0.46563515164380    0.28622080159050    1.86778179926867
H           0.28174267313118    1.64439536668465    2.55913256682250
H          -1.39656677693573    0.26410920124624    2.92663609133220
N           1.62156145844162   -1.02555095878064   -2.61224606478391
H           1.28544140007091   -0.02546160910167   -2.39830515056882
H           0.80913172201975   -1.64119842065547   -2.31497387538011
H           1.88416888540723   -1.15719472078888   -3.58237671258633
H           2.40612604245579   -1.19744280285231   -1.94326520569515
