    26
        -50.46294011  Gyration_radius:  2.65605408226 Dipole_moment: 5.935
 S           0.50644650690418    0.09711323842957    0.40868083842539
O           1.65877706281912   -0.29889769927930   -0.40099928048806
O          -0.69830782673379   -0.61505024216705   -0.06590789653308
O           0.69326384159108   -0.02773806310996    1.83023445426040
O           0.28548007728992    1.59000928135876    0.02726636154944
O           0.47979814398808   -2.28632926175234   -3.60014926524603
H           1.26896517726840   -2.53316332897915   -4.08488864950952
O           0.51280735200214    2.02749034456044    3.52608571908011
H           0.63508769016729    1.20964945053375    3.00227547706115
H           1.37766695104816    2.43527148335281    3.58767391324491
O          -2.20764485022803    0.02632745750215    2.05678852787365
H          -1.61929846934193   -0.22187540029370    2.77539624200445
H          -1.77872535673378   -0.31235558786618    1.24958558615544
O          -1.37652605645359    2.53987226626693    1.67511199805066
H          -0.39965444077376    2.03611538285105    0.65926854029571
H          -1.91514052419497    1.73224826757892    1.83534463179956
H          -0.79469139011373    2.60482172147492    2.45934296966913
O           0.84640263966874   -2.78436230650808   -1.02829060249424
H           0.59380157146151   -2.64999622713082   -2.68420894673557
H           1.35792416014267   -1.99674651421965   -0.75975285803230
H           0.00092532372647   -2.67696436522854   -0.58012570289350
N           0.10326346427125    0.04698360126833   -2.42727251055985
H           0.98401668025829    0.11704792188582   -1.84862079859412
H          -0.56534673460181   -0.20513405801255   -1.64618822329915
H          -0.14319433591684    0.92116287246581   -2.87942482316631
H           0.19390335247539   -0.77550024493764   -3.08722569193631
