    26
        -50.46347362  Gyration_radius:  2.63552108224 Dipole_moment: 7.104
 S           0.31791352651101   -0.57506450864592    0.37638674015814
O          -0.85383380349635   -0.43201246810675   -0.63133784059404
O           0.10838580778312   -1.75557194777177    1.17682092483461
O           1.51972614448761   -0.63841532825687   -0.46187018256632
O           0.33881821622385    0.65158073270672    1.19281219920448
O           1.56250281944499    2.86752542961412   -2.27700342028781
H           2.14705100806087    3.12351086175232   -2.99204032375641
O          -1.54288005533753   -0.18811719881223    2.89813758366690
H          -1.20024290363113   -1.07018371994148    3.07046962313707
H          -0.84219114713805    0.25404881398526    2.38424498357921
O          -2.04957948150805   -3.29316404585929    0.94274105290892
H          -1.19962329347709   -2.82648216792159    1.08733175059571
H          -1.89746109469742   -3.90494102092752    0.22136879499449
O           0.68459066007633    0.43304608619663   -2.76449212417016
H           1.04390428928848   -0.07707038753094   -2.00921711803667
H          -0.26737401846663    0.32654364710524   -2.68116082010090
H           1.15211940294533    2.00575464890037   -2.55243962642371
O          -2.96084430244606   -0.76648023894411    0.71144198488909
H          -2.92594512585014   -1.74167646896639    0.78233739866933
H          -2.66154358803228   -0.44214948586856    1.59160454468759
H          -1.74791820820777   -0.52224815659881   -0.12345824927098
N           2.29477486720148    1.75644374738284    0.01592741343384
H           1.43830898964462    1.62193219900142    0.63779715197063
H           2.36620240164450    0.75494936804796   -0.30599337341352
H           2.06732169164556    2.35932591172450   -0.81904879557221
H           3.10781717728536    2.07891570780659    0.52863974744923
