    26
        -50.46267206  Gyration_radius:  2.63258581934 Dipole_moment: 5.625
 S          -0.07924984667617   -0.55694822124454    0.79859105197135
O           0.46226262789504   -1.16257081105190   -0.52899642853955
O          -0.74931930123928    0.70665692594810    0.44365389957557
O          -0.98265665235259   -1.49588185313891    1.41002629906063
O           1.12103627554040   -0.28383687993895    1.59441203706381
O           3.13041188688998    2.19385112981794   -0.70424856821677
H           4.02480264987272    2.51238909417168   -0.57398038080963
O          -3.24402582423728   -2.13672533212011    0.25405474108143
H          -3.69320837108178   -2.78221421114047    0.80079955539500
H          -2.42593016586673   -1.89084716723230    0.74581061542504
O          -2.96158124687237    0.40784084013081   -1.07128609609492
H          -2.21229131854178    0.65180848891493   -0.49711767906241
H          -3.48117920520771   -0.22454484710048   -0.55948255778947
O           3.09601056680501   -0.39161575231751   -0.20632625105584
H           2.68682511839062   -0.91142120485168   -0.90402103923700
H           3.17724038456010    1.20394129966631   -0.62890307977932
H           2.46099596161507   -0.45585104026935    0.53680572574722
O          -1.59918690340372   -1.70452271180550   -1.92408355730371
H          -2.14911617471639   -2.26105992206145   -1.35087675919253
H          -2.07359863812904   -0.84015073003237   -1.91391843804267
H          -0.33044645520232   -1.40490670571739   -1.11723097357230
N           1.17875723096114    2.22095948805310    1.08952273427490
H           1.91655766034854    2.39749443078538    0.35732883482310
H           1.40807331500295    1.31295287002880    1.57822163237157
H           1.05259072059894    3.00394317759758    1.72108484968354
H           0.26622569503569    1.89125965491211    0.65015984222988
