    26
        -50.46243664  Gyration_radius:  2.53499175376 Dipole_moment: 5.576
 S          -0.18926289455106    1.10543394988613    0.05340503056325
O          -1.37147221591701    0.58475185756675    0.70662396358660
O           0.69155244035676    1.81680038833682    0.96079945642504
O           0.54971604917321    0.02359607725234   -0.63598827244501
O          -0.69194500882643    2.07299250661981   -1.05382083642920
O           0.97300222707043   -0.85052168507899    1.77337430732158
H           0.94801806308350   -0.65923207448778    0.80772403199566
H           0.90039714002906    0.02880156404946    2.16301952214768
O          -0.92509574142674   -1.68919558953036   -1.96621291824466
H          -0.31086405887731   -1.06911112069503   -1.50465921679547
H          -1.17380949217065   -1.24870239807357   -2.78042335364098
O           2.87283399360687    1.56942667183359   -0.48573833140227
H           2.20113952155264    1.72726090480368    0.21331768536105
H           2.63167817131962    0.71009319690262   -0.84707524685291
O          -2.57294552886943   -1.60296321928467    0.09451089957458
H          -2.30982087687972   -0.66747456904964    0.29932027817509
H          -2.10064539477451   -1.78608660587609   -0.75350507700742
H          -1.77564375548817   -2.18539363015955    1.10345382162935
O           1.45646703747884    3.22457643808235   -1.96887067499560
H           2.13154996377309    2.64855294008655   -1.52626995460208
H           0.09861748254206    2.51932558426289   -1.46779949629050
H           1.51873582355974    4.08114246102508   -1.54086931723795
N          -1.06123273931324   -2.53348852108443    1.91491284095399
H          -1.53011884600078   -2.52409156896844    2.81466219883946
H          -0.25428556314104   -1.83502602778091    1.91906799453314
H          -0.70656580731558   -3.46146756064599    1.70704068483912
