    26
        -50.46347340  Gyration_radius:  2.63616231934 Dipole_moment: 7.103
 S           0.49421347688962   -0.20910556685240   -0.53207790665319
O           0.34924502587045   -0.46222645829050    0.99229746018616
O          -0.38885969971479   -1.19967882292997   -1.15640879030897
O          -0.01055221519253    1.15027024084869   -0.79514277980988
O           1.87975233018207   -0.35431850634156   -0.90297516188291
O          -3.97646413056316   -0.19548153128661    0.15355227246005
H          -4.77881730949852   -0.70669839184944    0.03771202070167
O           2.27880948350576    2.36454076337382   -0.13251462083345
H           1.39193587316992    2.08118277372705   -0.42170840897435
H           2.88699315807273    1.80776314423559   -0.62772202886482
O           3.80415238537622   -0.85975802282797    0.86239399315047
H           3.17664956309610   -0.71451791938862    0.12331622604666
H           3.83067111954382   -1.80643910933840    1.00690916183547
O           2.16719135201638    0.89381608870494    2.09288764767615
H           1.05013661983494    0.10327333310647    1.49658656949541
H           2.91999203040009    0.29964505170786    1.89944060671469
H           2.25601464207802    1.62780553530231    1.44273513959390
O          -2.04365519421215   -1.84647774170014    0.84123381522386
H          -1.52847465708431   -1.56747431082911    1.60363169739768
H          -3.30476321977431   -0.82078459021761    0.53400683851953
H          -1.41723360908833   -1.76357809922733    0.09260217210687
N          -2.25292968945379    0.45392593586438   -1.75327499445500
H          -1.70032942249921   -0.44328090065949   -1.78415777254490
H          -2.56194685381718    0.77424634487106   -2.66421809817002
H          -3.04517943116780    0.33403300987546   -1.06738425413311
H          -1.47655162798412    1.05931774011594   -1.34172078448374
