    26
        -50.46267202  Gyration_radius:  2.63285928384 Dipole_moment: 5.626
 S          -0.33253166189501   -0.42458582228335    0.81278048543685
O          -0.05943042197782    0.99382717899301    0.52029456429250
O           0.83612386137725   -1.04154854647687    1.44667403415058
O          -1.55613170537610   -0.59944392628300    1.55021449648341
O          -0.45852169321198   -1.14646162789351   -0.56036259486796
O           3.70684584317505   -0.29661845210213   -1.13582189459244
H           4.60232102769393   -0.63770869779933   -1.12555758226189
O          -3.80558649777423    0.43976759116403    0.70141570095284
H          -4.50162858809458    0.20458514166279    1.31589137904531
H          -2.97502509810117    0.06890411188524    1.08113236810134
O          -2.09186277678239    2.28580583357864   -0.69570452461251
H          -1.30485547728691    1.95339720784953   -0.22584002167691
H          -2.83690941705011    2.10087757048639   -0.11031036122800
O          -2.51800518291785   -0.14368432248895   -1.67481420141445
H          -3.23196791556843   -0.25548691964107   -1.02812600352891
H          -2.31826372375933    0.82048227327487   -1.61929774830924
H          -1.27813576492177   -0.78321007114007   -1.03948816150425
O           2.06211867337854   -2.27783160469295   -0.58422026248874
H           3.11021387915561   -1.08636141478539   -1.04635980101824
H           1.62193358387740   -1.96670272534348    0.23369572965572
H           1.34138054357307   -2.36368135271002   -1.21476682075514
N           2.44547484523060    0.86368152806806    0.88680502921096
H           2.08535460229197   -0.00818879384648    1.36189730446373
H           2.92535109562471    1.50084559103587    1.51259071535505
H           3.03689766156221    0.57135848331180    0.06449380862140
H           1.49484031776207    1.22798178620350    0.57278435249272
