    26
        -50.46347336  Gyration_radius:  2.63632707286 Dipole_moment: 7.101
 S           0.56934896894301   -0.41883555253966   -0.26572321703329
O          -0.28349153084396   -1.35543588485837   -1.00484970906003
O           0.54697306956419    0.90269050387851   -0.91757631216798
O          -0.12762147171890   -0.25941299422851    1.11185527821530
O           1.91293678962812   -0.89929506168620   -0.06005270388500
O          -3.71525386092804    0.57271809295182   -1.32072896342524
H          -4.53898144763757    0.20414855264442   -1.64348217248451
O           2.95602042000455   -1.29710920581641    2.35404689930451
H           2.66430045839823   -1.22614359258399    1.42075091853427
H           2.69102717397457   -2.16895112314454    2.64988959766878
O           2.72219272629143    1.80730829648193    0.34930083258949
H           3.29538478204738    1.04638874869662    0.21649785225226
H           1.93828087147601    1.62636282211562   -0.20141374929920
O          -2.60931934497241   -1.18208673828298    0.30189860746644
H          -3.39061907893817   -0.05165965891018   -0.61956452215711
H          -1.77308846959439   -1.40026677533870   -0.15946952759919
H          -2.31901352919655   -0.82253622200027    1.14509065767284
O           1.51393469511069    0.96983421523208    2.57779256108752
H           1.99625095161564    1.49420645695987    1.89825401805884
H           0.49023969639623    0.27446788512316    1.74322124299197
H           2.10909598388367    0.22009265256753    2.78003309512476
N          -1.35627193304514    0.41075887774273   -2.51966660985518
H          -1.25567716680729    0.54770759407073   -3.51918094655852
H          -0.62966112604423    0.94776225738793   -1.95193221787278
H          -2.33215080095072    0.60858861674685   -2.17200142027787
H          -1.07483681666129   -0.55130275318816   -2.19298946929373
