    26
        -50.45606819  Gyration_radius:  2.60105157847 Dipole_moment: 7.223
 S           0.47737965980126    0.14567706649620   -0.99113848560712
O           0.54836489522609    0.34253045981439   -2.44671525687642
O           1.73640517831797    0.29410379382101   -0.31775125756361
O          -0.49737302653474    1.28040952290620   -0.52178376788106
O          -0.19383362100169   -1.11859152845180   -0.68110242455485
O           0.76150665572959   -0.38479474705972    3.19764510523892
H           1.64133571092435   -0.00150896579788    3.06805959843722
O           2.74294625824497    1.18961786281822    1.97369239296114
H           3.69763760929427    1.13860924050435    1.91725235490762
H           2.40864968437457    0.83977597241008    1.12175832128391
O          -2.43546382761278   -1.57420764636936   -1.88923450890599
H          -2.28573020086771   -2.36705409404941   -2.40743439345448
H          -1.61532898490468   -1.45844170653633   -1.33650240152781
O          -0.07096406087914    1.75213309325735    1.92428798470820
H           0.80992228939045    2.14419403125044    1.95151364836420
H          -0.34484106330357    1.45590997671311    0.47452547271830
H           0.04099654101501    0.91021129552329    2.44406597877570
O           0.65976990343435   -2.45605931010792    1.45336928198958
H          -0.07853155960707   -3.04972343692841    1.60122891446907
H           0.44925747342570   -1.95995848084068    0.63596986809690
H           0.74354601520426   -1.18253741044639    2.63147627294067
N          -1.87939761888433    0.83382119104436   -2.79281260785947
H          -2.20897285339581    1.21073094387999   -3.67486544896382
H          -0.76578700851607    0.64491365710403   -2.76246431679414
H          -2.03889854253228    1.47568089067571   -2.01675474783765
H          -2.30259549636236   -0.10544169164664   -2.55628558706947
