    26
        -50.45997517  Gyration_radius:  2.57009174929 Dipole_moment: 7.035
 S           0.33354309110440    0.23074011404641   -0.96055704756424
O           0.70081175334362   -1.12530303280783   -1.36536828469462
O          -0.34845031560641    0.93990749653469   -2.05111193317579
O          -0.77760111042249    0.08922084600113    0.12530016180163
O           1.44536301903575    0.96774630634351   -0.40772079965074
O           0.77512901132531    1.40158234638179    3.42474243954967
H           0.01143551875220    1.67089573511477    3.93712385952342
O           2.46634776932902   -1.37459658620215    0.64076896241168
H           2.74674815660014   -0.45738272642979    0.54641794602909
H           1.92676383816216   -1.53060904868199   -0.15442112222223
O          -1.24685062486929   -2.53707955320890   -2.32577243342688
H          -0.93886017503014   -2.85885325459556   -3.17495580199374
H          -0.45805928587013   -2.09832610312469   -1.90683095329982
O           0.79765946833534    2.92623638709502    1.21772405380792
H           1.52293958001751    3.54825771790965    1.13464325772262
H           0.98449919842007    2.21555002717943    0.56337246647917
H           0.80223342198139    1.99831561579229    2.64245344535099
O           0.31285888882998   -0.90525685192506    2.14421401034841
H          -0.36150053714936   -0.33796772493951    0.98436102479113
H           1.16412403583019   -1.21575886022004    1.75696357918488
H           0.53679251353679   -0.12546823102807    2.70380778729923
N          -2.53287550782141   -0.28537498362063   -1.90811470010143
H          -2.21202927855682   -1.26313856907257   -2.15930094025596
H          -1.61773542770983    0.34518857823678   -2.06558960565320
H          -3.33980497499662    0.02270126905178   -2.43990124519218
H          -2.69348201657919   -0.24122690382003   -0.90224811716407
