    26
        -50.45606806  Gyration_radius:  2.60097537508 Dipole_moment: 7.234
 S          -0.83022607532807   -0.57075544818804    0.46367234048850
O          -0.78160088736958   -0.39009320250725   -0.98882361831183
O          -2.20666264315294   -0.85317281036995    0.89738162307300
O           0.14079206093360   -1.51111708432549    0.94664849019117
O          -0.53889933429942    0.83866322884255    1.08587324557399
O           3.24927992721672   -0.19356312344373   -0.58595243867032
H           3.36657956944706   -0.86319737802692    0.10394093064215
O           2.66852865585912   -1.61943420653909    1.76286160683189
H           2.84622984663969   -2.51415769322370    2.05468075129279
H           1.73683662838281   -1.62051463910097    1.45984398456268
O          -2.53087835549370    1.21191611534651   -2.02154747401064
H          -3.04840178980730    0.66854761134165   -2.61860654381755
H          -1.78719621162305    0.62890098065690   -1.70775519805148
O           1.39361770991732   -1.25459170748465   -2.25192174979548
H           1.31413593198854   -0.79021861180292   -3.08706142763585
H           2.64196383804751   -0.59974530150660   -1.23665858691031
H           0.58774692576482   -1.03445800607059   -1.74138117119746
O           1.96479196817202    1.12771975606269    1.28054864129973
H           2.23610030706715    0.49445143651630    1.95544065360720
H           2.43519749802490    0.80369141095708    0.46469061536945
H           0.47380115662270    0.96970815492227    1.14223858118007
N          -3.10584850448856    1.45237656245721    0.53513765636927
H          -4.01467583955846    1.71491442210453    0.90095626523062
H          -3.04438916375461    1.52086849498483   -0.51783339526436
H          -2.35203079864837    2.00039480373071    0.94875924673291
H          -2.81479244063612    0.38286623469139    0.75486694120558
