    26
        -50.45606810  Gyration_radius:  2.60109332187 Dipole_moment: 7.233
 S           0.60976564721275   -0.36288253570122   -0.85340925544317
O           0.15917238510898   -1.29725099579112    0.18047357006917
O           1.66877315797962    0.49890157016171   -0.41031242866957
O           0.90495855811211   -1.08433761451591   -2.10030197431565
O          -0.64109571489870    0.50540841431442   -1.22757549470338
O           0.22721923651293    1.86262158170267    2.72524474637986
H           1.02056819659427    2.30822507687796    2.39331166287547
O           2.04676369988700    2.82676860145076    0.81649038869400
H           1.94694142532766    1.96015150495297    0.37036881371514
H           2.98801281378085    3.00316115713679    0.83015300214191
O          -1.68749678246797   -2.97830306595230   -0.49499186071942
H          -1.29074364933192   -3.84468797779372   -0.38761443747121
H          -1.02209019783127   -2.33358837962230   -0.13006230882445
O          -0.77149852508003    2.45690339110527    0.37383021917096
H          -0.58762372317342    2.17490123152861    1.31108027595628
H          -0.00951742221960    3.00710749339024    0.15747442807450
H          -0.71177465761490    1.28169952177475   -0.56550683117557
O           0.86567166977441   -0.77097080498956    2.69007345297733
H           0.47370745176009    0.91832345821782    2.79400851574251
H           0.24794043142443   -1.32424501788138    3.17140229359460
H           0.71014675328927   -0.95325586857138    1.74081279186600
N          -1.46679506207726   -1.58510530084564   -2.71631442733309
H          -1.69751732915974   -1.93134506339230   -3.64128891942382
H          -0.36266237473616   -1.40642646938740   -2.55612228369240
H          -1.89056370606070   -0.67682957665468   -2.52897103330341
H          -1.73026227210546   -2.25494430148455   -1.94225289616958
