    26
        -50.46259553  Gyration_radius:  2.72149614934 Dipole_moment: 4.464
 S          -0.20299432302017   -0.57801104203986    0.18400646489622
O           0.01092260721624   -1.75151036134662   -0.65723489304258
O           1.23231464289357    0.02543830969251    0.39172634543244
O          -0.96266162631963    0.45280857030925   -0.54735340812080
O          -0.77690305307574   -0.87007746022325    1.46759373225800
O          -0.24409246711711    2.34866277683052    3.63501268810944
H           0.50653323023459    2.70307937754154    4.11446996456020
O           1.99603811484879   -0.86572504434117   -2.14715295670597
H           2.52255511137287   -0.34407674125957   -1.53539391321188
H           1.38074567266500   -1.36656052420033   -1.56423143515157
O          -1.30013562642031   -2.33907444125531   -2.87965262029078
H          -0.89323995478279   -3.13293948848741   -3.23159115760725
H          -0.94821474537217   -2.24142480122090   -1.96630858966425
O           0.27389467300867    2.29844597079164    1.01891618013494
H           0.03373549710082    2.38134462908741    1.97355328902699
H           1.02782487772913    0.95128908835303    0.71959454419425
H          -0.51791312842723    1.99038934592902    0.55749050856547
O          -0.16349879465183   -0.29565748122468    3.95884651073517
H          -0.88959765795984   -0.68654354524695    4.44842308109590
H          -0.31697610522024   -0.55295616423086    3.02272863649566
H          -0.24299274511473    1.37751856317498    3.80877823004478
N          -0.30640556103804    0.12723265690837   -2.99594753819687
H           0.71345987181086   -0.10356548073270   -2.88249513580049
H          -0.48491461033057    0.86885341191314   -3.66322839317006
H          -0.79574892148008   -0.76656506295517   -3.23507405182478
H          -0.65173497856161    0.36962493823858   -1.99547607275875
