    26
        -50.45854333  Gyration_radius:  2.48330621916 Dipole_moment: 7.759
 S          -0.19961084379050   -0.56189669332125   -1.43459262496169
O          -0.24787022011799   -1.83335730577118   -2.07563113759753
O          -0.03016306498528    0.54052912341622   -2.55309424894353
O          -1.43732689861837   -0.20641562332916   -0.72236165989671
O           0.95114015445295   -0.38173727460480   -0.53797461667732
O          -0.82808039225500    0.05348637425719    3.06115364382033
H          -1.39100745355412   -0.05235263986843    3.82943700158783
O           2.90935909172816    0.86095936947133   -2.01148641035253
H           2.93685156345794    0.50704969261864   -2.90147174800158
H           2.38764062452733    0.23261109150093   -1.48789107160397
O           0.68244086316520   -2.98847793163610    0.21468632036453
H           1.15190870286357   -2.14369987575079    0.21680482168553
H           0.31719169600981   -3.04083878444234   -0.68025739853021
O           0.87330311320475    2.20604279841221   -0.50400784090476
H           0.22082127929793    1.35245136915457   -2.08859918244495
H           1.00871562302049    1.24116433158673   -0.34890720538117
H           1.72971754073318    2.51628107423624   -0.81655016570566
O          -1.43664730430816   -1.87438551185619    1.42786186872798
H          -1.62309887699322   -1.38002418250245    0.61202889409372
H          -0.69487158058256   -2.46764409377631    1.18428414528471
H          -0.98206346180856   -0.76111070072371    2.49696127260962
N          -1.27101748531817    1.66850473730007    1.03977265951967
H          -1.40987662689372    0.90863830368200    0.28368721281597
H          -0.44877504050042    2.20881244168274    0.73592124724443
H          -2.09384080855430    2.25643880185647    1.11658521591741
H          -1.07484018417582    1.13897110840231    1.94364099732959
