    26
        -50.45800468  Gyration_radius:  2.3957427496 Dipole_moment: 3.172
 S           0.65178521000193    1.42441571011976    0.14243487702593
O           0.36073890807969    0.55052690517993   -1.00266025061942
O           0.24370518646187    2.78293005342585   -0.08323944697056
O          -0.18580131606391    0.84130771661553    1.34656370224959
O           2.03540717917447    1.26059500783848    0.57524406108479
O          -1.74591214308360    2.21795499288818   -1.68489290231556
H          -1.28340694736626    1.54901574274296   -2.19849615230419
H          -1.03265240175820    2.64384414281629   -1.15837882436556
O           2.07195563812539   -1.31946118884312   -1.59296770011061
H           2.76196693720474   -0.94560188972234   -2.14390633853609
H           1.39362550841587   -0.60591787718616   -1.47449005742209
O           0.36875950309557   -1.80448280642607    1.98940003184463
H          -0.24437295146959   -1.92362089239967    1.19287715243217
H           0.11363031280950   -0.94582801256514    2.34949431981144
O          -2.62117226012225    0.99180723204747    0.45133343420668
H          -3.12581180191939    1.63369997543501    0.95510555739121
H          -2.41925888662411    1.43069739482846   -0.42136902634372
H          -1.13491328785813    0.88017429993509    1.05199519774013
O           2.52186012825153   -1.13565890169200    0.91504302601626
H           1.65389125741607   -1.50601250483177    1.41607470587683
H           2.43896341080719   -1.40722156172203   -0.06078569106317
H           2.38303487796359   -0.08252251540488    0.85863297084342
N          -1.16593032851887   -1.71927213744291   -0.13316138894244
H          -1.25819020780914   -2.47581519613261   -0.79824514812562
H          -0.68821071010785   -0.94642813300053   -0.59597949726430
H          -2.09369080512447   -1.38912557648103    0.10437338785732
