    26
        -50.45606810  Gyration_radius:  2.60126374631 Dipole_moment: 7.236
 S          -0.01288862721367    1.10742747356930    0.05465567517317
O           0.82925095729921    0.33529315728771    0.97088996016184
O           0.49599060655160    1.13770181107412   -1.28724012572967
O          -1.41528442684697    0.40624282286110    0.05989222961758
O          -0.29716373068432    2.43540058438920    0.61873303873428
O           1.00598489194187   -2.47599348395652   -1.95056258440057
H           1.05585497627451   -1.89163633212881   -2.72138790519973
O           0.40808353938898   -0.24914965631304   -3.55335240071803
H           0.89573737824591    0.23920959651337   -4.21737277680192
H           0.47257829596718    0.28317930308171   -2.73338236610354
O           0.08852092362995    0.26154881923867    3.44839252324950
H           0.41504914227296    0.18464392655359    2.51083788003882
H           0.80722355960552    0.66577114449421    3.93788704438575
O           2.61829121825138   -1.30884094028687   -0.11121320282892
H           1.64688620747986   -2.10885711501953   -1.30895651423148
H           2.00045183765126   -0.62674150006779    0.22275868781138
H           2.82168648735593   -1.87231536714352    0.63748385188216
O          -1.38990653491781   -1.45030542739142   -1.65543243033230
H          -1.33359148652238   -1.00106799395855   -2.50697367820744
H          -0.54194162942113   -1.97134542797880   -1.61841588689334
H          -1.40052313393958   -0.36218631644500   -0.61474729739355
N          -1.87495001489880    1.66466783166603    2.39968163508031
H          -2.44009778767961    1.00952784660385    1.86023079426181
H          -1.19621334686752    2.13513619794294    1.62851096399952
H          -2.44440602741429    2.33203942489847    2.90862259891138
H          -1.21462327545100    1.12064961045915    3.02046028549355
