    26
        -50.46259540  Gyration_radius:  2.71972577868 Dipole_moment: 4.461
 S           0.46067137526220   -0.41755706626339    0.18315753306549
O           0.47211820034953    0.47459836306042   -0.99098762230447
O          -0.91635579904144   -0.16040389130657    0.89363710260800
O           0.40243710252848   -1.81496293395519   -0.23440968723529
O           1.52306254086025   -0.12184169562756    1.10308008512552
O           0.63807430723622    3.38966974233651    2.61464734262548
H           0.03432819321957    3.67733262192441    3.30141482154532
O          -2.16159559373231   -1.99089142198369   -0.81533839808062
H          -2.58449993636723   -1.45002353695224   -0.14291609764776
H          -1.24014923215760   -2.10218439867926   -0.48666762969444
O           0.93619647078176   -2.75087883113192   -2.65120310467332
H           0.74166710145560   -3.68958379425616   -2.62500665402764
H           0.93035767640230   -2.45131235841920   -1.71428096242158
O           1.66533829094389    1.07339630180046    3.43980496439709
H           2.60696040335387    1.06620873988610    3.62139217519009
H           1.05889969853352    2.56356032087706    2.95214713415249
H           1.56115883864236    0.56738401829550    2.60345016965847
O          -0.71890904383397    2.35556756687591    0.56525892773614
H          -0.20419484278156    2.80631715820862    1.27792622496863
H          -0.08876501417635    2.12401176175581   -0.13060822677420
H          -0.96795510936470    0.84178270521021    0.90439647055220
N          -0.85379301447364   -0.78550062273219   -2.77598973541486
H          -0.28523994976433   -0.15183151229679   -2.10211977473608
H          -0.19433311784164   -1.55675705228113   -3.03336303443260
H          -1.60491084738414   -1.21343943070995   -2.17710815204282
H          -1.21056871869125   -0.28266078367904   -3.58031387214235
