    26
        -50.46218805  Gyration_radius:  2.39319458927 Dipole_moment: 7.358
 S           1.16938272352783   -0.94766213647972   -0.25906147686178
O           0.53461717423080   -0.30844821817800    0.90599074375862
O           0.76667186802323   -0.06166194165428   -1.48380901475588
O           2.62603641854614   -0.78781754162936   -0.20194536217866
O           0.72105022749303   -2.29627984611553   -0.44322726118372
O          -2.23595952498806    1.00100685621119    1.28946919207958
H          -1.48436597159398    1.42927186521411    1.70701780838142
O           0.48919203253715    2.19961497334796    0.31236122257870
H           0.46947550807832    1.26095949825985    0.64259286882292
H          -0.24170645839652    2.26750070213675   -0.30967880173567
O          -1.95202112580409   -2.29992477418527   -0.75890672709298
H          -0.99448603818814   -2.48292720877894   -0.79754840408711
H          -2.14036622658950   -2.22916972300605    0.18949608128544
O          -1.52267709289190   -1.61984527284562    1.91230766907672
H          -0.70036705806583   -1.21101080404114    1.55755414396728
H          -2.25732117459260    0.09898559763649    1.64253018799185
H          -1.23997670664921   -2.33225650275985    2.48661532190052
O          -1.72439154599699    0.27229989819860   -1.27553088480080
H          -1.98630972869530   -0.68239962946920   -1.24739998490070
H          -1.97872498864625    0.61950398447237   -0.39310218648080
H          -0.25120766307157    0.07071241495477   -1.46125122999704
N           2.81207892480273    1.64405467732492   -0.81252540287602
H           2.81623888526476    0.55175985212176   -0.52727346948097
H           1.91320491969623    2.02474901185166   -0.38674395002757
H           3.63366163773271    2.12617148493260   -0.46216841488017
H           2.75827097426834    1.69281279249821   -1.82576265854648
