    26
        -50.45800464  Gyration_radius:  2.39567986134 Dipole_moment: 3.165
 S           0.75250596450107   -1.29000895539913    0.49279993130690
O           1.64349851919813   -2.25855884328538   -0.08243898320221
O          -0.44334772861101   -1.06437757257125   -0.33104721966220
O           0.38020263549968   -1.54318287257558    1.88062256541515
O           1.49511402828224    0.10130978396414    0.55544600260546
O          -0.01252177133896    2.19052194728580    1.59706425408936
H           0.87823886708832    1.82495616187795    1.52682581304816
H          -0.36489787537987    2.15104401589485    0.64902942049709
O          -2.71425792681222   -0.66617460419964    0.87661177256140
H          -1.90746782692413   -0.85953793622548    0.33342006776083
H          -3.10519642939247   -1.51557410645527    1.08913208091608
O           1.02250951179479   -1.76570421823094   -2.57537263508743
H           0.07235386191854   -1.70567328826131   -2.43801540834983
H           1.35834583622384   -2.13598169182034   -1.72833140009134
O          -1.13682135828022    0.23627825978290    2.67187161191981
H          -0.70435134128628    1.13367571458092    2.28609104447574
H          -1.91636135708589   -0.00199256600320    2.06481960489915
H          -0.43902601538813   -0.53206010081308    2.43859938565575
O           1.97590903206327    0.58690293213865   -1.95245691668762
H           2.91916589000853    0.56135564146492   -2.12567413569010
H           1.60854542035118   -0.26094607419939   -2.32836323134502
H           1.70506266800499    0.33239487630380   -0.38877620087155
N          -0.73140479305966    1.73770351141971   -0.88219552669741
H          -0.72668620786400    0.71967396005135   -0.82470080840254
H           0.00660689357115    1.99755273449684   -1.52557258753880
H          -1.61571848707465    2.02640329078088   -1.27938851154239
