    26
        -50.46378410  Gyration_radius:  2.40556891885 Dipole_moment: 6.534
 S          -1.23986402611426   -0.58411299711449   -0.15041320683629
O          -0.54086017712414    0.13455972733962    0.93522791409801
O          -2.60329562969015   -0.07261252802548   -0.30313641961113
O          -0.53999144130389   -0.13731133367854   -1.46906743984366
O          -1.14668890563105   -2.00520428343062    0.01364266711461
O           2.08113893411501    0.77102085960762    0.84229243308222
H           1.13377512350115    0.55498642079222    0.94158649649742
O          -0.35147386154029    2.66647068338957    0.27028299425016
H           0.60106074978991    2.72337410738123    0.14890234057296
H          -0.50177994389084    1.77762344973589    0.66970842813246
O           1.37650802411637   -2.90443309551676    0.14081335121242
H           0.41530143750669   -2.83031901973093   -0.00645570599319
H           1.49469197101608   -2.57372056419123    1.04773511553106
O           0.86516128678559   -1.56493160736664    2.49593875413465
H           0.25530417553655   -0.98912864270699    1.99596311117449
H           0.30780610759026   -2.15793490836244    3.00182240900210
H           2.51403941848606    0.31826987405115    1.57004670126189
O           1.87503319495091   -0.80361151762298   -1.35045719772473
H           2.19111904035558   -0.17731682613092   -0.66917257850911
H           1.83119987501790   -1.68719341075558   -0.89755257176805
H           0.45215616015809   -0.44590878929733   -1.47531289387149
N          -2.10937829221635    2.03374552778113   -1.58102847307328
H          -2.43357250683231    1.11215697145344   -1.02676480491430
H          -2.88237899746433    2.66176075937542   -1.77577962870148
H          -1.38900681409509    2.46906572477383   -0.93658465413331
H          -1.65600491279752    1.71070542807175   -2.43223716101530
