    26
        -50.46378406  Gyration_radius:  2.40555061672 Dipole_moment: 6.532
 S           0.80689723185423   -0.44547119305259   -1.02546648288851
O           0.59999894992756   -0.72025479252041   -2.44870090862986
O          -0.05319841478023   -1.53754867427906   -0.32106204553727
O           2.17114428904391   -0.52024437496002   -0.59153923376060
O           0.19054428979247    0.84627455973613   -0.65751465402194
O          -1.03146536072514    1.28515447837347    1.70950566820005
H          -0.58917633024355    1.19356324162732    0.84346528903387
O           2.47625851798565   -0.15453980820157    2.04770128102598
H           2.59485624806829   -0.43749441156785    1.12202883284602
H           2.32469403035906    0.80343854173952    1.97610783171346
O          -2.39928906533343    0.67411070863463   -1.04633842057533
H          -2.69634215923849    0.71721007813835   -0.13248528097319
H          -1.43629584879963    0.88245551331070   -1.00840786508558
O           1.81416891709272    2.28724678700269    0.95171176837813
H          -0.54797430872670    1.98152763510444    2.16031047198826
H           2.61229108731364    2.58295895487390    0.51146039493826
H           1.30042937192288    1.80597413893224    0.27510544730259
O           0.05268366122261   -1.15502599155164    2.15538364890773
H          -0.47221595137138   -0.33271202049311    2.22359448844373
H           0.01182773450258   -1.43973306093799    0.71132935574994
H           0.99760522320766   -0.87746706179384    2.28873436340595
N          -1.78291835795243   -1.51360176452148   -2.36959335954830
H          -0.71677037791777   -1.18812482936049   -2.50755840638791
H          -2.22665072790517   -0.69701257293412   -1.85945579099018
H          -2.24441086098765   -1.71509176724228   -3.25065554392592
H          -1.75669179841455   -2.32559235404686   -1.75766083964661
