    26
        -50.46378403  Gyration_radius:  2.40544114859 Dipole_moment: 6.534
 S           0.89523390852649   -0.68518799304929   -0.79529127568379
O           0.11772833550233    0.46962955006427   -1.49539848021216
O           0.78239439804708   -1.79223062407147   -1.74693563642783
O           2.23880700045875   -0.28201584723302   -0.49972665203455
O           0.13628842103638   -0.98786519364387    0.43612337351956
O          -1.23490352668075    0.87643352900548    1.82615482081276
H          -0.74439385047261    0.16154295360545    1.37624274768606
O           2.38154979075539    1.84022518573144    1.13302493035080
H           2.13715630633625    1.31241164251912    1.91249184961368
H           2.57067417404004    1.16853267361178    0.45171987210600
O          -2.40270421444643   -1.22396624217419   -0.18619299554326
H          -2.74465395832916   -0.44480722775381    0.26240591639150
H          -1.46811231576309   -1.29997532609726    0.11839625609335
O           0.07067094420639    2.44590194948413    0.04798277221845
H          -0.53807138087374    2.10987117632330    0.73557152164508
H           0.97524446411365    2.41764865534124    0.45876537891270
H           0.12527944669366    1.32344951735549   -0.90301930004303
O           1.52604030647637   -0.29842451180372    2.64806389824059
H           2.30824228668955   -0.83559587484127    2.78209217351033
H          -0.84697291937605    0.92662099803839    2.70299723140414
H           1.09647178471769   -0.65076257465410    1.84503523521134
N          -1.51004794856160   -1.31534588496251   -2.65850198198806
H          -2.05659745691442   -1.26563946728095   -1.75161782195743
H          -1.90763439462315   -1.98161938020272   -3.31257828788844
H          -1.43101651858283   -0.38500027452308   -3.06168072226344
H          -0.47667309292561   -1.60383141868486   -2.32612483360397
