    26
        -50.46259561  Gyration_radius:  2.72045607496 Dipole_moment: 4.462
 S          -0.55362780919356    0.24357911035858    0.21746026813351
O           0.01517058967091    0.37707909442250   -1.13651191934677
O          -1.81124421769980   -0.44978094347375    0.21446364026158
O           0.49207639698310   -0.59935965906079    1.03184794318275
O          -0.58531374887440    1.53804561164872    0.89103473789935
O          -0.97940130019418   -4.14630978729179   -0.78278069601075
H          -0.62884645807570   -4.89695231545996   -0.30050591552480
O           1.94474631535683    1.72079769589320    1.60561917052089
H           0.96241967145077    1.70320072518003    1.54228895114012
H           2.17840231277285    0.81974049191049    1.84446836914476
O          -0.35358667066889    3.90691131499477   -0.26494380575393
H          -0.34830893662399    4.55316127066506    0.44355168232896
H          -0.63742153805030    3.06053623570208    0.14827074670366
O          -2.60054483924968   -2.86227845677436    0.89831438524998
H          -1.62354346739654   -3.71055758125564   -0.17565100071465
H          -2.28236343208500   -1.94842842953772    0.72534733656768
H          -3.53134573329677   -2.85133854439085    0.66763130211260
O           0.84158971589140   -2.20220808669170   -0.91400450702607
H           0.48201309719618   -1.48398424767816   -1.45220689353561
H           0.69932078397324   -1.35004210967030    0.39912264812317
H           0.18364410998144   -2.93854113015834   -0.94429651298366
N           1.66676168462988    2.31932587994731   -0.95811949942564
H           2.06280881248035    2.13473784511667   -0.00150917305476
H           2.37263165802879    2.44162917244160   -1.67500956729443
H           1.00804846323839    1.47894938974566   -1.15549308527998
H           1.02591454975958    3.14208745341878   -0.86838861541888
