    26
        -50.45997517  Gyration_radius:  2.57002867928 Dipole_moment: 7.035
 S          -0.67078734225305    0.04763082490261   -0.79701456331692
O          -1.39485036945195   -1.02856053096916   -1.48614159488652
O           0.18871031827349    0.78011274090276   -1.72563242727191
O          -1.53317257522379    0.91701668397225   -0.03188973496546
O           0.27427961899922   -0.72220306454591    0.17663211107243
O          -0.26338699221815    0.86429716159377    3.67094523011858
H          -0.00820751732522    0.16432129535144    4.27359530166600
O           0.42614613542752    2.86343677536477   -0.05011284975985
H           0.48523258019519    2.27347495210613   -0.82228783531909
H          -0.49462366967765    2.78498274033717    0.22341243733882
O           1.80459864851556   -0.69965528419304   -3.10699347515336
H           1.65210232301286   -0.46323019622187   -4.02369661389094
H           1.27358080696905   -0.04866301454057   -2.57368127174765
O          -2.35510521382453   -0.05487214978334    2.26531463826482
H          -2.06105555270916    0.24143760375263    1.37430551693515
H          -1.05994807788569    0.53646410831705    3.19468878071624
H          -3.19623118384415    0.38074463406674    2.41562021121613
O           1.41287839051782    1.00141822463917    1.58616339256181
H           0.86518708157283    1.04094654325726    2.40459282436394
H           0.78099687132564   -0.03138592086209    0.77633453157080
H           1.20292290462120    1.81944106767365    1.07844536043477
N           0.55137270549500   -2.58488024416794   -1.77509750555433
H           1.16374756134899   -1.99775035534340   -2.40936665835456
H           0.93745607045412   -2.56008682970337   -0.83178160482435
H          -0.39828462146557   -1.99175300264206   -1.69613818866138
H           0.41644111922798   -3.53268476332003   -2.11021602258074
