    26
        -50.45854335  Gyration_radius:  2.48311951688 Dipole_moment: 7.761
 S           1.02625567825865   -1.10649902511888   -0.36901304835313
O           1.49921218021299   -2.33503647780419    0.17589762163917
O           2.03610462723762   -0.65378783252028   -1.49608729734550
O          -0.28002481163825   -1.21517050553410   -1.03788292241664
O           0.99480271692893    0.00662498815672    0.59041851235490
O          -2.94858944070179    0.84193247395021    0.80610660864832
H          -3.90200801308701    0.77514136325368    0.87649915785441
O           3.35746435142929    1.37617637762021    0.28553330964024
H           4.08452937945400    0.76694940800392    0.15035559001016
H           2.61990022231131    0.84439548219877    0.62372308249646
O           0.20607907968416   -1.76230079087541    2.50915993015813
H           0.49251416042359   -0.88449494213420    2.22374184089229
H           0.70571283923805   -2.36010126632771    1.93461559127620
O           0.94692008688652    1.89607193927141   -1.17925698574572
H           1.82090905065558    0.27071183546011   -1.68841109935862
H           0.89358206251802    1.31662394651570   -0.38255054654269
H           1.71155947931313    2.45682708016298   -1.01128095610186
O          -2.02078523343264   -1.57619085450081    1.02249949660357
H          -2.59604455349011   -0.07354418360491    1.01445047125030
H          -1.47264453312707   -1.64132580149799    0.22243536915864
H          -1.38842335340241   -1.71836362380736    1.75837945501461
N          -1.57658655049252    0.97930449844348   -1.42739050690684
H          -2.12389967321015    1.00629196809001   -2.28082068612945
H          -0.83682920196258    1.69559913417186   -1.43124847982615
H          -2.18949036250579    1.05942233083593   -0.55914144622028
H          -1.06022017750143    0.03474248759405   -1.33073206204974
