    26
        -50.46294019  Gyration_radius:  2.65584759052 Dipole_moment: 5.946
 S          -0.37225768599538    0.13642855200178    0.52355105268714
O          -1.54028676842215   -0.06990145032959   -0.48435369548059
O          -0.34218373444201   -1.11658367139443    1.27821431922291
O           0.84839248655508    0.24451145887864   -0.30233032053141
O          -0.60469280896885    1.31519025037841    1.31590480403358
O           2.51900523367519   -3.47286616466136   -0.07550498876674
H           2.50642179834578   -4.26815801071214    0.45935131244105
O           0.50044317206596    2.83554335309857   -0.90398178019901
H           0.34456297218427    3.20107614642886   -0.02861335249331
H           0.77748291507505    1.91408708852044   -0.74785938470529
O          -2.68552213137062    2.94864387671665    0.94906971948397
H          -3.41654629142193    2.61614024337116    1.47160128164445
H          -1.90692293025413    2.41009344939046    1.19779923240235
O           2.32647670313798   -1.35920634812333    1.50298384314033
H           2.49446350933858   -0.57416560107474    0.97127618221588
H           1.36299331317511   -1.33558607751614    1.66168056770594
H           2.62310994634520   -2.71636469667082    0.55786322798560
O          -2.01160146112742    2.17460311732065   -1.54233302090702
H          -1.09981338636721    2.54425646335671   -1.53518736099529
H          -1.77441079827226    0.81447002643625   -0.96498065842576
H          -2.45763565019505    2.60918912214182   -0.78744181648548
N           0.37241711870767   -2.20871397455863   -0.94454424943464
H          -0.16208679939550   -2.09118327916797   -0.04116083267018
H           1.19292811262254   -2.85502950718484   -0.77313623066467
H          -0.22008153731277   -2.48152058960280   -1.72163945662154
H           0.72534470243169   -1.21495377716428   -1.03622838454946
