    26
        -50.45940097  Gyration_radius:  2.54066003888 Dipole_moment: 6.856
 S           0.89152438176419   -0.58729033777461    0.04843309944351
O           0.27685017725039   -1.57378386677164    0.90261967206934
O           0.08215134907311   -0.46037874191014   -1.27650118978946
O           0.90282283512152    0.74802397600282    0.65302336193876
O           2.23771159696932   -0.95849934268416   -0.40642174661289
O          -2.69844147492506    0.81101466015651    1.60499830155135
H          -2.72115649725233    1.76858664039770    1.58866439771808
O           1.91445976301797    2.59676157474136   -0.84772609851246
H           1.44658813717726    1.96386309259039   -0.23822493963355
H           2.59187241450290    3.01368137820112   -0.31212097562439
O          -2.02116356273593   -2.84994960362678    0.43605843606883
H          -1.11290910453813   -2.52074215996984    0.59401541366263
H          -2.43584715452791   -2.91087095629637    1.29886011808701
O          -0.43799433666141    0.19993648000133    2.87713491024624
H           0.11797977183234    0.57603016379770    2.16765354708666
H          -1.92183105521120    0.56791305027864    2.16412691559638
H          -0.31641583308379   -0.74889165159477    2.76314321173257
O          -2.36385541893787   -0.45826437676685   -0.72716059527628
H          -0.93429669339862   -0.42572256924001   -1.06600319936183
H          -2.44617713614632   -1.39545735532710   -0.44790122829024
H          -2.53440914491742    0.06374332318522    0.09096174043859
N           2.32029088334422    0.52780987171034   -2.42151067498407
H           1.42110676973052    0.31390109125428   -2.85098360050647
H           3.08658587461379    0.45473397646005   -3.08213279199571
H           2.25950901463909    1.47557244705058   -1.95498561820220
H           2.39504443339523   -0.19172075409354   -1.55802047696242
