    26
        -50.46294012  Gyration_radius:  2.65592844985 Dipole_moment: 5.937
 S           0.36284370092106    0.52204920983172   -0.16758771504987
O           1.17525908186738    0.74969778568299    1.02753944843027
O           1.17597480962726   -0.53653025802171   -0.96823176971858
O          -0.89636945779850   -0.15150861284658    0.21268061216209
O           0.13720659508311    1.68965096879569   -0.97817949910616
O          -0.27444785106151   -1.27872456800875    4.08714101523239
H           0.28178693713980   -1.08474678297566    4.84321781573677
O          -2.10546553705257    0.25208709009525   -2.14753051786641
H          -1.95195386559112    1.19356964216213   -2.26679547038719
H          -1.81486836715702    0.06158164130965   -1.23673929621208
O           0.90015079258252    1.88037932953816   -3.53042431276609
H           0.60448042909303    1.93964106856724   -2.59918667652791
H           1.79966891589934    2.21001500579134   -3.54507115759139
O          -0.82488388054105    0.97172172020804    2.81099138951958
H          -1.50211164512992    0.78321756274046    2.15293512635852
H          -0.59596482616817   -0.40298341354027    3.74952287411240
H          -0.01019004635196    1.08903545927013    2.28504556579432
O           0.13516068765430   -0.68951959889464   -3.26420796014164
H           0.46103584912562    0.15458536771676   -3.63692951945281
H           0.78970530667001   -0.65774843636479   -1.91921170472931
H          -0.80102146695215   -0.50668548965087   -3.02279259270845
N           0.60815265600101   -1.69073805872058    1.63507304101934
H           1.20854334369688   -0.83274378081831    1.49855040072417
H           0.31564751122221   -1.74369735755388    2.65091122063459
H          -0.21940610662852   -1.38498519957515    1.04976070310546
H           1.04106642373525   -2.53662030466622    1.27951897955880
