    26
        -50.45940089  Gyration_radius:  2.54041474111 Dipole_moment: 6.843
 S           0.38843709933877    0.99275588785644    0.04613389345414
O           1.31719723928127    2.05284304538375   -0.36697330843182
O           1.10471344213636   -0.07098140087898    0.75613129807812
O          -0.75132403909148    1.47800281201717    0.78506148384077
O          -0.08355053126256    0.37581132975320   -1.30414991667838
O          -1.88095706881899   -2.15432029574795    1.52624226167679
H          -1.35007251461695   -2.94963510554236    1.58411159201269
O           3.12052108321218   -1.05449567797155   -0.53384510388262
H           3.86364127025579   -0.98448723174458    0.06822104715185
H           2.32287273591117   -0.78431938789067   -0.00315650673085
O          -3.31372151798835    1.18827074809172    0.09420461494300
H          -3.76783229162047    1.04039373254391    0.92608505303073
H          -2.39796078357905    1.44434797489687    0.32663232012427
O          -2.12807777322037   -1.01102490605285   -0.88049291100755
H          -2.75443604720178   -0.28161409324925   -0.68402060258130
H          -0.91267133196341   -0.22913008308664   -1.14300180642016
H          -2.04171991877384   -1.50446024091040   -0.03192974056126
O          -0.49657197705152   -0.30840796175010    2.85929164631825
H          -1.43530466738672   -1.48830015769726    2.10313737276277
H           0.23376218324777   -0.32279597288567    2.21092898301419
H          -0.92892467807192    0.53254634319623    2.67516825683089
N           2.40888451242829    0.81007399039962   -2.24844846998067
H           3.04963274668548    1.28499425691714   -2.87523575920048
H           1.58889558470042    0.45145017002288   -2.73622483560156
H           2.85986324312799    0.01849426874419   -1.71050373269787
H           1.98470402034309    1.47398795546968   -1.44336713944864
