    26
        -50.46459925  Gyration_radius:  2.41014120213 Dipole_moment: 2.678
 S           0.73859539707833   -1.17523501621539   -0.18209351978955
O          -0.24201428891356   -1.53399302472418   -1.21370933560229
O           0.03921810373799   -0.72055390280828    1.02770106687203
O           1.53776388568307   -2.44699815764467    0.18304893997504
O           1.67938268231714   -0.17789071308336   -0.65217997051489
O           0.14489599345554    3.00100672597466    0.50206858258324
H           0.23095591533187    3.87266750262587    0.88967207464061
O          -1.80491700907583    1.08958282865430    0.46932740102725
H          -1.28341278905038    1.90815158685837    0.57223760080525
H          -1.21830532081397    0.37161435846521    0.80236497414628
O          -1.44830313246307    0.51768786562601   -1.94838068397709
H          -1.77770707807961    0.79502042139687   -0.99151578417591
H          -1.00120143193526   -0.40843155001089   -1.76335018649776
O           0.65083781800575    1.88257677732120   -1.94522359644368
H          -0.62049304125689    1.15220201490172   -2.11211376142894
H           0.51261098147194    2.47965995027987   -1.18571684581062
H           1.20121016092980    1.14603872731850   -1.59446252784463
O           1.71270924770587    1.24841948210107    1.65532869727786
H           1.07360190587066    0.51027821888781    1.69707163678812
H           2.29227868643721    0.98305141791981    0.92957646468584
H           0.77505387466136    2.40533891040659    0.99765409547923
N          -0.74125986259989   -3.49725508607668    0.82918585374406
H          -1.13443481485643   -3.30182268139448   -0.08434720971749
H           0.81506955008976   -3.06744907521546    0.48493831814958
H          -0.95701676869035   -2.70484056418393    1.42341711513698
H          -1.17511865504297   -4.32882704738664    1.20950060049169
