    26
        -50.45940080  Gyration_radius:  2.54076753179 Dipole_moment: 6.833
 S           0.74683244724050   -0.67352435472438   -0.35540066842161
O           1.17921420668428    0.58627486025868    0.25667248996189
O          -0.50600046618597   -0.33347525576589   -1.21640563575558
O           1.73061612988407   -1.12952409490397   -1.34608759619892
O           0.40696602157424   -1.67489923657017    0.62553442463285
O          -1.68028618565950    0.90906984712219    2.62078087078372
H          -1.58210904637326    1.86097560143676    2.66437901678306
O          -2.02934295693235   -2.66657160458965    1.08271267598727
H          -1.10018048510107   -2.44452644098263    0.86924359318443
H          -2.06280738058593   -2.78495566936200    2.03394672830699
O           1.73581701697926    2.46582096820035   -1.43242406593730
H           1.47411554182199    1.82536138761972   -0.71681868762442
H           2.62228909499029    2.75322925142926   -1.20631220564436
O          -2.49357605178123   -0.14406555941528    0.29911358718253
H          -1.33499184022731   -0.21947745337410   -0.60068564358763
H          -2.57951980228202   -1.09205599633458    0.53762870701968
H          -2.24576442273248    0.30580658397622    1.13999245143874
O           0.80002500022945   -0.04713024275062    2.80600707069556
H           0.73746987866672   -0.98707448364062    2.60442585489155
H           1.06331075249349    0.34092094003158    1.94923046784300
H          -0.78263945708276    0.53561264190220    2.79322435909250
N           1.18371301855900    0.53710071010278   -3.13476441724700
H           1.59566638362400    0.45380161003288   -4.05796525781818
H           0.16771079557924    0.45932774830468   -3.15868348416200
H           1.50721623985522   -0.27001546231480   -2.41852011121476
H           1.44625557674293    1.43399370435922   -2.63882452415106
