    26
        -50.45940110  Gyration_radius:  2.54045085707 Dipole_moment: 6.852
 S           0.69395885481608    0.80880910362606   -0.06926973922674
O           1.69258057778918   -0.01184488440850   -0.70941562114660
O           0.31195641845131    0.19331612789384    1.30986713686067
O           1.17003730521618    2.15467430813453    0.27563757008930
O          -0.54840509630392    0.88524534907427   -0.84353281052328
O          -0.94396634224233   -2.77468832600283   -1.38211377373981
H          -1.89198551746536   -2.68518644331978   -1.48704491931570
O          -2.42401174396316    2.27746514646249    0.26955586599653
H          -2.68461979986957    2.92267941937018   -0.39025759317280
H          -1.78564070677278    1.66894996434391   -0.19207020329381
O           2.61332705553363   -2.35548839069905    0.17748525534870
H           2.41876324161833   -1.44480977458332   -0.12408364696644
H           2.72906581612276   -2.87997581513088   -0.61726292211258
O           0.07615702548452   -2.28784206978876    1.04331729579640
H           1.02241878797780   -2.50569725920626    0.90142065623033
H           0.17883033776695   -0.83244083108606    1.21211009747164
H          -0.36305577631504   -2.50325861162271    0.18796970871096
O           0.09268306444831   -0.77775039005393   -2.80993100685390
H          -0.29340857031142   -0.09871337255151   -2.22349667612644
H           1.02899664911539   -0.74635850474930   -2.58568379941914
H          -0.54014891336421   -2.10843448811898   -1.98873172576628
N          -0.52518596849604    2.65111044206589    2.05219727671174
H          -1.41037387043884    2.63599470292045    1.47292946441042
H           0.29624966716691    2.53861838752713    1.28967977517057
H          -0.43740969646365    3.48125709939662    2.62850684747498
H          -0.47681277964325    1.79436910082620    2.60221747716475
