    26
        -50.46459850  Gyration_radius:  2.41011691041 Dipole_moment: 2.682
 S          -0.85614270774339    0.31463591667001   -1.06242404188280
O          -2.08215906080188    0.22859811396668   -1.99990104688252
O          -0.80813560064081   -0.92201615161986   -0.26987027616093
O           0.34803904713499    0.41385022499080   -1.89567468938835
O          -1.02534878659135    1.47723526944984   -0.21362340237629
O           0.57593097835081    0.40954900323208    2.96256807509868
H           0.57998294946450    0.37159316041598    3.91958305327457
O           2.33936621796899    0.71325536982243   -0.42996545773002
H           2.17594620915241   -0.14735316468721    0.14759572752612
H           1.59488960470890    0.62947365054440   -1.15848775417502
O           1.51216256020010   -1.20123753658031    0.96656700940964
H           1.30956737076379   -0.76978880149133    1.81831246426481
H           0.64599611357902   -1.26317650546836    0.50142725269467
O          -1.82640232976022    0.08337343263759    1.97159382481718
H          -1.97859834695616    0.92451078326758    1.52175664817003
H          -1.58321738109006   -0.51036524234090    1.23445514552901
H          -0.37206616426768    0.27958862373559    2.67633904446813
O           1.12728573331160    2.31004275682459    1.07019612133554
H           1.02109569932798    1.79019509170035    1.88928528784509
H           1.98011731474806    1.49040745531021    0.18778035341888
H           0.27413274810977    2.20813094992574    0.59039104787456
N          -0.97756333449598   -1.89902899888655   -2.98371763600551
H          -0.12035904032701   -1.40857329047070   -3.21120167634742
H          -1.11467480425927   -2.65606487914442   -3.64138152125112
H          -0.86528852162533   -2.28097996583426   -2.05137041651907
H          -1.87455645826240   -0.58585524596597   -2.54023312700393
