    26
        -50.46294010  Gyration_radius:  2.65587557032 Dipole_moment: 5.940
 S          -0.42118583085855   -0.06650973793973    0.49999430030137
O           0.89416114360061   -0.21365831298749   -0.15743862619564
O          -1.03654246059410    1.23732800865464   -0.08654714643662
O          -1.32341052782756   -1.11696568584068    0.02784088955836
O          -0.31041363123635    0.03878940498905    1.93104147715973
O           0.21680081930085   -2.94671882083918   -3.11128858340894
H          -0.40008817742996   -3.63273505828415   -3.37108478510783
O           2.16924734562257    1.49135602448157    1.47428766956067
H           1.85547869111340    0.82990415765455    0.83059523118453
H           1.89780995287032    1.15329599997576    2.33231912214198
O          -0.94464260191961    2.24250594484041    3.30000711030333
H          -1.87821491840387    2.19897982910878    3.51121241381212
H          -0.71335404670017    1.37349527669978    2.91343759271648
O           0.14358151471167    3.17723240840495    1.01915675583149
H          -0.27171676703017    3.12569630267381    1.90376543469254
H           1.03123796055915    2.77016594878378    1.14001424958121
H          -0.58425735314626    2.07411416981921    0.31762219537093
O           0.52553733091408   -3.00115128778302   -0.48481766868835
H          -0.26748811027137   -2.50942946944524   -0.19616705110304
H           0.43402787397443   -3.11779139997685   -2.15850000148908
H           1.25682185350995   -2.41645425655427   -0.25965311258403
N          -0.46541394146343   -0.52109951744669   -2.32856410834672
H          -1.16714395742690   -0.75131267599104   -1.57340473097526
H           0.34478576449326   -0.25806510984032   -1.70011086395780
H          -0.22535073009491   -1.40879787073508   -2.85256205724313
H          -0.76026718614525    0.24782572751396   -2.92115569663878
