    26
        -50.45800462  Gyration_radius:  2.39565827489 Dipole_moment: 3.162
 S          -0.75254483879926    1.35735058531026   -0.25378903579739
O           0.67372132399898    1.38639694960483    0.42146626861977
O          -0.78745432998091    2.34925690766288   -1.29186958534630
O          -0.91797967070749   -0.00781530822200   -0.77222945887170
O          -1.66438607100718    1.59823654836248    0.85945581427123
O           1.04742507968073   -0.46960036242696    2.45597802537551
H           1.18285926275286   -1.04931863045577    1.63740916518061
H           1.27814049513975    0.41676749831594    2.15088745050798
O          -2.29416051629478   -1.70438161060488    0.64232947339036
H          -3.22528780312755   -1.58957664763834    0.44420398373800
H          -1.80168272510087   -1.11494648820300    0.01516696253033
O           0.18430259349208    0.81759424453694   -3.17684026138385
H          -0.23134318941742    1.53227776526805   -2.64414739268057
H          -0.33413630566058    0.03769534662617   -2.95736368059226
O           2.23932082207171    0.77803622675499   -1.56220869693094
H           2.79301070652224    1.52581622917343   -1.79605607236984
H           1.31517434110919    1.16044748011390   -0.30412726057309
H           1.54262004964917    0.72395299388764   -2.27413841953364
O          -1.43554690292029   -0.20812190619642    2.52633966579936
H          -1.80803347912410   -0.95010390664802    1.94007127671215
H          -0.38095597619567   -0.36414967057435    2.59403340213539
H          -1.55183047069488    0.64231564610904    1.89779289163657
N           1.24761947577005   -1.66107362206060    0.13034712854711
H           1.13823049548463   -2.65686641471236   -0.00980032155458
H           2.08244326573760   -1.36049823017356   -0.35841320742782
H           0.46047436762127   -1.18969161381061   -0.31449810538439
