    26
        -50.45940093  Gyration_radius:  2.54044337261 Dipole_moment: 6.841
 S           0.44018048663812   -0.82462251300769   -0.51564151503659
O           0.45051664964932   -1.85798253496918   -1.55923400395722
O           1.72746663646030   -0.60972509302300    0.09851803095018
O           0.00068055418862    0.45991656393958   -1.27962547867020
O          -0.61138388337203   -1.09772269887636    0.46835925073028
O           0.14244340808118    1.77979402412939    2.70546640019869
H          -0.75518012866169    1.79759689115992    3.03969034673151
O           3.08767771954299    1.68707052922368    0.14133742584038
H           2.70467129429796    0.79199664047691    0.04003947712359
H           3.49171380860520    1.70666136206264    1.01107026186456
O          -2.97148249545043   -1.41758402727715   -0.54310572028626
H          -3.27845105149139   -2.26096466317906   -0.20532742257830
H          -2.11559116897353   -1.23719402101023   -0.06796033626629
O           0.51883719820367    2.45677093513199    0.14421190455253
H           0.17867755118046    1.29708450143835   -0.69076479665449
H           0.32326033247232    2.26644354000121    1.09105537874816
H           1.49749279855990    2.42584470372143    0.07915704567895
O           0.81601427574165   -0.79824011248024    2.68565961226701
H           0.44480803308454    0.84364672362363    2.79031001811644
H           0.15566505665221   -1.01243021766921    1.99857705840914
H           1.64927996555363   -0.85186656905699    2.20528421542420
N          -1.60957100811269   -1.11078373138237   -2.77335730043778
H          -1.42405052097063   -0.11224465409924   -2.85962923927945
H          -1.86406671836920   -1.53080304345489   -3.66094373312946
H          -0.66510735176380   -1.53105447560663   -2.32592148441444
H          -2.33450144149056   -1.25960804027583   -2.01722538569749
