    26
        -50.45800455  Gyration_radius:  2.39568257411 Dipole_moment: 3.157
 S          -1.37526178992280   -0.64715670435790   -0.40288975019564
O          -2.76416827296991   -0.30842953365975   -0.26547787052484
O          -0.63890241648932   -0.53340407351532    0.86388643317987
O          -1.11502093738723   -1.93643053230192   -1.03445820397627
O          -0.69957470233341    0.38937035728333   -1.38270458022633
O          -2.44462135851789    1.39812171663070    1.69154330923557
H          -2.78748109135253    0.77469395969991    1.01259252632599
H          -1.81495895140487    0.86901704882352    2.19038025114734
O           2.01914807873363    0.00180712014270   -1.80951769976189
H           1.19564355603338    0.29640703877218   -2.21809975977630
H           2.02871209381551    0.47722264640348   -0.91610513444997
O           1.21893518172327   -2.28394994733899    1.37109524912072
H           0.81372313977454   -3.06302719182195    1.75612675987046
H           0.49793691248318   -1.60847390023447    1.28650031855759
O          -1.03750389457104    2.64029725368705   -0.12750020782289
H          -0.80594150479890    1.27591299197906   -0.94493846501848
H          -1.64250671790403    3.20758391033722   -0.60970595966394
H          -1.55686927158023    2.28775654285792    0.64782550158382
O           1.32022257292047   -2.31253061124143   -1.18126746892662
H           1.70895729846919   -1.36670218946688   -1.48954671520490
H           1.48318104232299   -2.38827851748203   -0.18092549612808
H           0.26231363908891   -2.20538142172837   -1.22010861168619
N           1.64866839104339    1.16367278565615    0.51039656345910
H           1.30812298126733    2.11003384110729    0.38963658122210
H           2.32607213200255    1.16286936416139    1.26160547893935
H           0.85117389957418    0.59899804558182    0.80165696070914
