    26
        -50.46428350  Gyration_radius:  2.66467675941 Dipole_moment: 4.534
 S          -0.53246945885294   -0.40764354515783    0.49179631072518
O           0.75606842739982   -1.04353713275802    0.21772527961484
O          -0.71053021986459   -0.18754927192738    1.91323683391496
O          -0.63298500752083    0.86219582582316   -0.25638922167606
O          -1.65649027415295   -1.33632399112224   -0.00510612907825
O          -0.08065468046872   -1.57699370743750   -3.79222120977292
H          -0.49678503414944   -2.28754262580883   -4.28320157570556
O          -1.13720885433461    2.10925081661885    3.09983150050455
H          -1.04926625430010    1.17817127460104    2.78130953628184
H          -2.06112056724139    2.33667802322687    2.98402773685283
O           2.13505380553034    0.25844951365275    2.02054010147167
H           1.69083584085013   -0.03496474766407    2.82117039866048
H           1.74872049257031   -0.30789435593869    1.31036760587267
O           1.20189282008760   -2.73164815248960   -1.75460829275423
H           2.15991640113673   -2.76177072307347   -1.78069662030316
H           0.97803698107131   -2.15583971733053   -0.99017444561733
H           0.42862494379367   -2.01072279220470   -3.06929716899747
O          -1.90606176835595   -0.30188057138843   -2.31390463706915
H          -1.85610321592354   -1.04860222228102   -0.95397019018817
H          -1.45118402584731    0.44628600048778   -1.89943987582364
H          -1.25489156242275   -0.71693134794766   -2.92820109578858
N           0.76610757959077    2.38749015378281    1.27309987915688
H           0.08789419073060    2.56506332164419    2.05186020335370
H           1.20647499521678    3.23172003649547    0.92512548051640
H           1.46674300205473    1.66577048022795    1.61413749045312
H           0.19938146339683    1.86876945797867    0.52298210538765
