    26
        -50.45940085  Gyration_radius:  2.5406331504 Dipole_moment: 6.841
 S          -1.04376813815413    0.04314958706567   -0.22465820447580
O          -0.54106094931703   -0.11802771474939    1.24095325923963
O          -0.18785985780124   -0.81463523870041   -1.04955934208073
O          -2.41273858051733   -0.48688627983584   -0.17789402518577
O          -0.97329293839465    1.43014914001044   -0.61419520207376
O           2.90020964406721    1.24503538601798   -0.74576763469622
H           3.46047975767486    0.48565587094355   -0.91088569630237
O           0.06145930616829    3.42060213401628    0.83280071151929
H           0.49462358459423    3.98281328459164    0.18753582750625
H          -0.45159100015462    2.76355636803980    0.31971700939542
O          -0.19448999778984   -3.31084818057866   -0.36856303828744
H          -0.41298696145490   -3.79048712540380   -1.16974419403199
H          -0.07881874730803   -2.36304234511865   -0.64985077501335
O           1.51575355327120    1.28234234315914    1.54378249021341
H           0.33029534551278    0.43126919224465    1.37641090380582
H           2.08775003018571    1.23545178789237    0.74274909133485
H           1.09232193156443    2.16641155099315    1.49836846724545
O           0.94584976098837    1.05983879395895   -2.54774853300135
H           0.28714743771293    1.71599257147902   -2.29564091549062
H           2.23029567700114    1.25057512942669   -1.47111215266045
H           0.59575067488613    0.23852073789411   -2.15170474673937
N          -1.96139172803039   -2.41145907811056    1.36120285667036
H          -2.72752237681131   -2.96167538658546    1.73438313636635
H          -1.29479698113854   -2.97445284312170    0.76282877769140
H          -2.29110388019127   -1.57585035067830    0.68155014144086
H          -1.43051457650977   -1.94399932480991    2.09504176760837
