    26
        -50.45940096  Gyration_radius:  2.54077524002 Dipole_moment: 6.844
 S          -0.19044515435602    0.53884299352052   -0.90109247748555
O          -0.32036731346380    0.63947902108259   -2.36055450282750
O           1.12645253564631   -0.27058581417637   -0.70801273404516
O          -0.07850914484892    1.81641827198152   -0.24088020543379
O          -1.26600538653789   -0.28700761696773   -0.34454429514021
O          -0.28747797080411    0.10349524336658    3.22976628886734
H          -0.70625914429764   -0.72424664753345    3.46893895549948
O           1.96400963199541    2.63084770235553    1.27255018559830
H           1.54978059467476    3.13251026825008    1.97755203543415
H           1.25748608447625    2.44388804595427    0.62127364079074
O          -1.48592401970214   -2.63022532139240   -1.41967062312570
H          -2.40204000021254   -2.69642885177643   -1.69533962147284
H          -1.42442967158774   -1.78028417813418   -0.90520163416614
O          -2.03445512915023    1.31737266973596    1.62516049503009
H          -0.96364305423871    0.61234564014280    2.72099279729114
H          -1.56800867712611    2.07048342022234    1.24654408843769
H          -1.94340426628833    0.63550297883437    0.93182444969284
O           1.88234345775719   -0.02051193585379    1.66883709916724
H           2.14859735591437    0.92327167106971    1.63254977690009
H           1.11083791794506   -0.04143870521736    2.28161628868603
H           1.43809700460315   -0.20494319752357    0.28075006368863
N           0.45777465476109   -1.67649414959651   -2.91467456482326
H           1.30484769831525   -1.72992681804138   -2.35029709905940
H          -0.30183910280624   -2.24414835638528   -2.44547006831468
H           0.10999829578187   -0.61186704251568   -2.79409300294818
H           0.62258280346369   -1.94634927136098   -3.87852533609899
