    26
        -50.46428349  Gyration_radius:  2.6644015495 Dipole_moment: 4.530
 S           0.69110823290436   -0.37654985235927    0.26623128236977
O           0.91927317824700   -1.80759916051063    0.29389673039759
O           1.83149734129350    0.31669795848237    1.03531953374936
O           0.67998586536459    0.12551365461188   -1.10768638262023
O          -0.57960799151048   -0.03079804791915    0.93554304381988
O           0.48728427443911    4.07713070233938    0.07436327820796
H           1.15723499885009    4.73355418091826    0.27295203691507
O          -0.65483102569215   -3.62163920547662    1.34104262729588
H          -0.52216378512084   -3.61876441937413    2.29031009652619
H           0.05644583877944   -3.04498375360686    0.97001846899949
O          -0.56445138679634   -1.91473728114745   -2.17358776320088
H          -0.08841900877609   -1.08863733808609   -1.91823479094018
H           0.06812329776823   -2.61525567803876   -1.98998755346110
O           1.51805127756818    2.51582262724990   -1.83090190783485
H           1.16786690227419    2.59155017026530   -2.72029314524141
H           0.85279823599600    3.53234144066724   -0.66029118322243
H           1.28272126373021    1.60947189055174   -1.53213730867190
O           0.44010977205603    2.21684989092363    1.99275728242962
H          -0.29808256640146    1.62504805911403    1.78488984997967
H           1.41943814805195    1.13278102483186    1.46804454338698
H           0.39992577304756    2.95228455558579    1.33607952408015
N          -2.10084884875481   -1.86940879999213   -0.02822249937531
H          -1.79955971258933   -2.69570655544698    0.54134389457393
H          -1.65134591587628   -1.95771851763184   -0.98648484591061
H          -3.10763861434927   -1.75925325965757   -0.07280030130005
H          -1.60491555450127   -1.02799428629756    0.41783549904716
