    26
        -50.45940091  Gyration_radius:  2.54062970139 Dipole_moment: 6.836
 S           0.43720216633127    0.72902762002366   -0.64464887080686
O          -0.94210817159957    0.97884398003610    0.03501887804716
O           0.43490683243470   -0.67162477326666   -1.07695619800915
O           0.41476743737199    1.62700942456145   -1.80666647828270
O           1.49924091238579    1.01634283695781    0.28807896284502
O           0.63937230752864   -2.16464540680416    2.32759226204992
H           0.22772747801401   -2.97748125455231    2.03161624546522
O           1.20186626184470    1.66648934330190    2.86022127275288
H           1.93256742923757    1.22914103750985    3.30152478360194
H           1.36709207948605    1.56950779041531    1.90027842967210
O          -1.48649232263791   -1.29348464140303   -2.69444785822606
H          -1.05748398511984   -1.69026751748222   -3.45479919949330
H          -0.76412733796146   -1.15776350839032   -2.02313326936600
O           2.42069618718272   -1.56988317050666    0.43725139502634
H           2.72832484868448   -0.67827212062091    0.63318581427210
H           1.37435730640515   -1.98626374304191    1.69272660693340
H           1.72694023555827   -1.41713190420561   -0.23314081455866
O          -0.87286138303892    0.04262686584224    2.35916910974886
H          -0.38176148077716   -0.81153062870552    2.37323343654284
H          -0.25497229071244    0.69408420972397    2.75507786134200
H          -0.94282022926824    0.56878988474236    0.98964527550142
N          -1.98434048851785    1.27726613714166   -2.43805034146017
H          -0.90359514174547    1.52899738087819   -2.24468584953365
H          -2.41582877741484    1.85028497051561   -3.15529397022844
H          -1.96336207711739    0.24783836614765   -2.68157264935858
H          -2.43530781637654    1.39209881113117   -1.53122484460618
