    26
        -50.46428344  Gyration_radius:  2.66457408201 Dipole_moment: 4.528
 S           0.77189513808696    0.30458232803171   -0.01620210753554
O          -0.32552714941819    1.21622136928313   -0.33926973530157
O           0.23041915806323   -1.02074899679436    0.34775215032493
O           1.70183002886619    0.19892444163604   -1.12285601807770
O           1.52712667878709    0.85639821015772    1.20762746162463
O          -1.88634803076681    1.09794643850832    3.47992144513897
H          -1.72749532216988    1.62011609662293    4.26811130352788
O           2.38118505353054   -1.99081201788328   -2.39105276242765
H           2.26705556971859   -1.10792151498434   -1.96253866820906
H           3.02404211657779   -2.45790605991679   -1.85506284938013
O          -0.58692258061498    0.51079774760576   -2.84526564343629
H          -0.60233023367007    0.88052822757364   -1.93013911270019
H           0.27709637701168    0.76198804310769   -3.18426506914266
O          -1.55547487436622    2.75324555922723    1.41088803791089
H          -2.33256388869023    3.03172802638854    0.92311434454936
H          -1.80881487238987    1.72254237746691    2.72231222870113
H          -1.02558978624558    2.21955049158761    0.77811211430495
O           0.23653307145358   -0.44358419899919    2.97057007702466
H          -0.57759895233337    0.05864813078883    3.21293112460828
H          -0.00209874630319   -1.00238602324668    2.21617805301585
H           1.09563929154768    0.42919711698192    2.01647659510651
N          -0.24225793330345   -1.96496882497578   -1.99928107168759
H           0.72438825783205   -2.22720824466705   -2.30691190573881
H          -0.49890341818916   -1.05545202935675   -2.48428696722230
H          -0.92406423675951   -2.69970975511024   -2.15100712288106
H          -0.14122072626782   -1.69171694901576   -0.96585589208329
