    26
        -50.46428354  Gyration_radius:  2.66478440563 Dipole_moment: 4.534
 S           0.27111571359193    0.39246127211747   -0.67956867201460
O           1.38694580794951   -0.02012758333343   -1.50755739878997
O          -0.67847374904723   -0.72117501152469   -0.47896836694683
O           0.73555507130800    0.88711735237752    0.61635002263261
O          -0.48072456642150    1.52736993104192   -1.40008733964866
O          -3.02871883900796    2.14763216267153    1.75957980706800
H          -3.49997510678415    2.97527803251322    1.64993176704079
O           2.66633188032277   -0.84964669918419    0.93750166856419
H           3.22284268990052   -0.62801885125900    0.18538593773423
H           1.98675938065913   -0.13392931384472    0.95248720330065
O           1.77396604403309   -2.39581063325763   -2.54243179687883
H           1.72048546287205   -1.44659951011942   -2.27360665577553
H           1.21505531897739   -2.47788345906331   -3.31677112373871
O          -2.81121177306504    0.90610961309147   -0.59700213576039
H          -1.45476766190138    1.41889943550492   -1.14989468161746
H          -2.39518069617322    0.04934913901867   -0.41997724626671
H          -2.97278179829976    1.32348080814763    0.28248162540061
O          -0.44800387012274    2.78746902483569    2.00436243706618
H          -2.08393110286211    2.39092582524483    1.89533536488531
H          -0.03791109196897    2.69208122228227    2.86588490630953
H           0.00375109167701    2.13476248892728    1.42470239260153
N           0.97862241691659   -2.63684207023599   -0.02324120007860
H           0.17385599175621   -1.93768655749199   -0.15183941980182
H           1.73310629494458   -2.07588477443894    0.47092989256377
H           0.70495925363418   -3.46770135533728    0.48911451007167
H           1.31832784712174   -2.84163047866388   -0.99310151792083
