    26
        -50.46428348  Gyration_radius:  2.66441625544 Dipole_moment: 4.532
 S           0.80843144207287   -0.19110111874197    0.02136175159275
O           0.36809609366997    0.77879530609231   -0.98118232594846
O          -0.33613159546041   -0.59534043480356    0.86323430955267
O           1.42298199624430   -1.34378325064645   -0.60660100828713
O           1.84960973646015    0.48238095900641    0.93518421448996
O          -0.65325621328829    3.61078258628846    1.84282065122075
H          -0.16535288143557    4.32019657047169    2.26442242918303
O          -0.46356738401848   -0.96006630089058   -2.75105112877220
H           0.36156138991778   -1.41343853331190   -2.94627456431598
H          -0.19033445441813   -0.19582110613416   -2.18931757315917
O           0.67170740526131   -3.84209555947602   -0.36538781967187
H           1.10028005753117   -2.96082468628951   -0.49135340437573
H           0.99689750841824   -4.17082835412974    0.47420268144605
O           0.33938986843614    3.38873569485792   -0.62609003555971
H          -0.31583325067078    3.56323234247007    0.91872161366117
H           0.43294167049927    2.41750185941891   -0.74471837711756
H          -0.20037139663688    3.68581334335241   -1.36080352129233
O           0.22378193007587    1.24845885148127    2.73330643883785
H          -0.34901132536720    0.57488329137082    2.33765514352833
H           1.32995572447674    0.86600437985389    1.71346801987083
H          -0.15630656129553    2.12203732690530    2.47617491041928
N          -1.45856998010834   -2.29880055330541   -0.70572037319095
H          -2.44203181256755   -2.53097863739939   -0.62454498403414
H          -1.21681845219594   -1.84018423564889   -1.63266903554242
H          -1.13150736018180   -1.58958699680995    0.03114151332695
H          -0.82654214542985   -3.12597273396166   -0.58597951582377
