    26
        -50.46428350  Gyration_radius:  2.66446351014 Dipole_moment: 4.531
 S           0.07850843220311    0.81466593449606    0.14194258599830
O           0.99082171894340   -0.08590568096158    0.84649568191156
O          -0.87481149130468    0.02821105410293   -0.66731666980087
O          -0.73211444304770    1.60901452144451    1.18332333492241
O           0.81092752918337    1.75251369944541   -0.68546277572378
O          -2.02749996977149   -1.78945210506932    3.09160095328725
H          -2.41339291032872   -1.56958228177518    3.94123120536823
O           2.71110334800491   -0.37286568305780   -1.10402648255798
H           2.15907225826742   -0.35666534075901   -0.28586199157195
H           3.01409146774651    0.53461394440070   -1.19971328500012
O           0.56827296227998    2.07359795087250   -3.27438885280757
H          -0.21719956966043    2.59828551096938   -3.43692157272572
H           0.71308032200550    2.10469512068190   -2.29751799818150
O          -2.73004294619767    0.03947301555058    1.27388558499569
H          -2.54851682837818   -0.67933559074234    1.92512135409905
H          -1.57754336276242    1.07709887291681    1.34252025139420
H          -2.37957328424094   -0.26725867917264    0.42450568046037
O           0.54562840691583   -1.09157728044340    3.23997723214821
H           0.70732266059809   -0.64005758826325    2.38209788649902
H          -1.06938785954928   -1.57347744492058    3.16637214218979
H           1.20223032680670   -1.78855248009573    3.29043011022206
N           0.61170002932210   -0.51492835477672   -2.69673551311495
H           0.59266632224327    0.39973909864132   -3.20759249883247
H           0.42667150260734   -1.31200244837790   -3.29518927953803
H           1.54434545942273   -0.58324145580455   -2.19298643569824
H          -0.10636009130616   -0.40700627930515   -1.90579063794114
