    26
        -50.46584236  Gyration_radius:  2.39854522538 Dipole_moment: 4.271
 S           1.65625423707214    0.38198027044933   -0.79818159363921
O           2.26520364782518   -0.01412612805897   -2.04882031679959
O           2.48627765266246    1.06661869992123    0.16086743903918
O           0.39700948114879    1.12238547170714   -1.04534282902666
O           1.20452987642315   -0.99493395070522   -0.16477939885209
O          -2.16818836609129   -0.62302232846842    0.96364313438113
H          -3.07498524447364   -0.64721583866163    1.27105240872462
O           1.05874904639072    1.80359277325585    2.21646618843175
H           1.66027670847259    2.20390656141174    2.84637975805043
H           1.60943297395714    1.59998943594957    1.41608898431972
O          -1.10166839202912   -2.29800872910437   -0.95462806107145
H          -0.23362271338688   -2.39555589754610   -0.54126329865952
H          -1.60245901116200   -1.73907768302637   -0.32944435871872
O          -1.34242015629703    1.84733017637407    0.79184745824471
H          -0.74547078708479    1.71271438001341    0.02533659855884
H          -0.73352056429307    2.05745487939480    1.51316194303063
H          -1.93054316515563    0.34243925860877    0.86034458112708
O           0.29044284219643   -0.79000150796049    2.22695213588333
H           0.94420352929107   -0.91138043815352    0.80536832006415
H           0.50519219805695    0.14356642485486    2.42051807944730
H          -0.64872750194407   -0.81919115120532    1.97683162967598
N          -0.12870840886657   -0.63564098551181   -2.77287346177038
H          -0.57916736965988   -1.40732980648448   -2.20084099688908
H          -0.20499709143584    0.25086633007879   -2.18006639344234
H           0.92349925544812   -0.70454208630248   -2.74832372923865
H          -0.50659265706636   -0.55281812082741   -3.71029422084719
