    26
        -50.46584240  Gyration_radius:  2.39851600965 Dipole_moment: 4.269
 S           1.31056559632318    0.53321131696801   -1.23438487079641
O           1.64219490272701    0.09859566146125   -2.57338632879620
O           1.27326271551130   -0.81892456505633   -0.41489571971468
O           2.22729379826967    1.43101152334402   -0.57792080119413
O          -0.07689436399627    1.05035877285310   -1.18512206137796
O          -1.71574883384494   -0.82693571063664    1.54471706337658
H          -2.49857754154266   -0.95048497327806    2.08258669748748
O           1.26283213326033    2.16685073459148    1.73178481559375
H           1.92743727205696    2.71561556249377    2.15125005686058
H           1.61937233924434    1.96165247441384    0.82845307131574
O          -0.90124404344373   -2.52432915048061   -0.47409254645218
H           0.04663956224841   -2.44990804692303   -0.30144732644931
H          -1.31459465522082   -1.98024710831595    0.22393644302442
O          -1.39135905503683    1.70486232562961    0.99890886808617
H          -0.66452080892155    2.07829502978912    1.51617294459153
H          -1.67858635129905    0.14626945534614    1.31929447778373
H          -0.99402925678586    1.57805564927398    0.11117522980686
O           0.97395044316310   -0.49497952772694    2.11578632740166
H           0.02116808319673   -0.68852079088840    2.12797363107550
H           1.25727051658170   -0.67074702572256    0.58185494111040
H           1.06884779361471    0.47534835278841    2.18363584382052
N          -0.71550169596913   -0.94206169752201   -2.59013276614703
H          -0.86887552733259   -1.70534229156920   -1.86923657374637
H          -0.78915470549087   -0.01761302424988   -2.05816406193043
H           0.30464156167330   -0.85267439100796   -2.84266921093697
H          -1.32638988906431   -1.01735856556665   -3.39607815380848
