    26
        -50.45800469  Gyration_radius:  2.39571677219 Dipole_moment: 3.168
 S           1.07446803730284    0.59479091565136   -0.98252109007746
O           0.87212669874243    2.03686435492911   -1.07383057560467
O           1.46205558906086    0.36915901156780    0.53077409463316
O          -0.19501577324035   -0.11933870257218   -1.17742420164309
O           2.13033120091437    0.07725935912814   -1.80728374597272
O           1.23731750302490   -2.37964835374210   -1.89910466621802
H           0.31273761452545   -2.15206640630333   -2.03530496137241
H           1.71036749021877   -1.52787132841035   -2.03367297197322
O          -2.40475136862178    1.25380683079425   -1.10556317272292
H          -2.56304869927713    1.63128868945871   -1.97268900263349
H          -1.61514579946828    0.66148362963742   -1.20027514876275
O          -0.42882726787587    1.24587712333640    2.36912431174160
H          -0.82717616576367    0.35812728704579    2.09049094219413
H           0.51651565461402    1.13451777158133    2.20814658328092
O          -0.97046433954856    2.71427698873085    0.42266053459859
H          -0.79552232293481    2.15497053303037    1.31577141047388
H          -0.12578112852384    2.52371635925395   -0.19543296921022
H          -1.70981118384076    2.23709295533019   -0.08591276881911
O           1.63276384877659   -2.22026547289987    0.67953617180857
H           1.45674376312188   -2.42380417126168   -0.28104319928510
H           2.53938855939163   -2.48942837815430    0.84081765418121
H           1.54260579392958   -0.61606327717736    0.63954645049305
N          -1.18978031037290   -1.04586803012871    1.35063990828692
H          -0.58364365529114   -1.79698854238897    1.65815299313898
H          -0.93505223527460   -0.83879085644906    0.38528999021174
H          -2.14340147360309   -1.38309828998901    1.35910743923794
