    26
        -50.46428345  Gyration_radius:  2.66505602085 Dipole_moment: 4.529
 S          -0.38773960318922    0.67352363187347   -0.28809538221976
O          -1.09540007833503    1.72600967070343    0.58613802901227
O          -0.70823554784101    0.93675429582086   -1.67686536279263
O           1.05374567792803    0.76531486860319   -0.05675692699851
O          -0.87713469386259   -0.65786587736106    0.12426993754265
O           0.68157454788780    0.37593927584196    4.03436390267739
H           0.55999679745772    1.01033138352763    4.74280497964905
O           1.79929259237135   -0.33395006397256   -2.31153561364166
H           1.43851831689406    0.30003005095096   -2.93802205967561
H           1.67155331727840    0.09746996718855   -1.43302348814394
O          -1.95874045301915   -0.66632035223231   -3.32976179624268
H          -1.53999454323266    0.05654344799897   -2.80229044323747
H          -2.89794833017200   -0.60956457548846   -3.14698790985948
O           2.15979696645035    1.60543693627833    2.18137058044257
H           3.07163001938961    1.33022567770665    2.07112342790769
H           1.70990039300186    1.36702050995476    1.34061178238016
H           1.26543350161676    0.81680238395870    3.37484174588284
O          -1.55120341416809    0.20956811460945    2.57500081398632
H          -1.40512301391982   -0.49293149500095    1.92425645515187
H          -0.76279384990251    0.20721801286191    3.16846956238867
H          -1.32701191521286    1.25796706737706    1.45229108173359
N          -0.17548168677653   -2.04249998562329   -1.92827507915929
H          -0.48756750621542   -1.60826608087487   -0.99704986956808
H          -0.91390565088280   -1.76660335675276   -2.61842452216385
H           0.71127167383713   -1.51334465164627   -2.17671204948480
H          -0.03443353739248   -3.04480887631820   -1.87174180554906
