    26
        -50.46428343  Gyration_radius:  2.66504806398 Dipole_moment: 4.529
 S           0.77833033092646   -0.25578649124343    0.12544324278130
O           1.56365346678769   -1.18775348249814   -0.81656674864667
O          -0.29883815963520   -1.02237882958891    0.75149386729859
O           1.69073342887661    0.26696973310130    1.12292305930700
O           0.20742678466489    0.83431601793906   -0.69182839871805
O          -1.81194153355793   -2.33047196029426   -2.85774480253498
H          -1.62809042552387   -3.09630012978206   -3.40441117576330
O           2.29928510653870    2.78311883542699    1.52820422255450
H           2.94160859610149    3.04491975016488    0.86666074821094
H           2.21266161494719    1.80265831386036    1.44287603613989
O          -0.61299945136588    0.52985909624548    2.83477593755650
H          -0.60645074224895   -0.14439550653325    2.11400421798780
H           0.25193064123818    0.44155720820308    3.24544204171707
O           0.26179005910570   -0.64621565104477   -2.93192868194707
H          -0.53548158078296   -1.22580172335512   -2.97919551738459
H          -0.00102821861392    0.13910565637902   -2.42943815366096
H           1.13156689720799   -1.09246773435395   -1.72603800615912
O          -1.46602399061238   -3.12111069685588   -0.33080230181073
H          -2.24188948299244   -3.22771772062309    0.22240919546388
H          -1.72863335920058   -2.63819885462585   -1.92575998900533
H          -0.95817457083979   -2.38044351737770    0.06873770142550
N          -0.31674215228844    2.54570519592665    1.15724023618229
H          -1.01821421757280    3.26683769097987    1.03225067494940
H          -0.19526615957238    1.92221727401340    0.29145079333027
H           0.63888415345986    2.92737510797845    1.35430572974488
H          -0.55809702504057    1.86440241795292    1.93549607098199
