    26
        -50.46428349  Gyration_radius:  2.66509335268 Dipole_moment: 4.530
 S          -0.17593421498565   -0.09577790358709    0.80453083543204
O           0.45591836506237   -1.15688190380250    1.72514676088456
O          -1.27172767669050    0.53567030596646    1.51253778923486
O           0.84981576531952    0.88370723839111    0.44622924872455
O          -0.65810482916856   -0.78298015677194   -0.41098079682948
O           3.47078626412062   -1.99070904380098   -0.93657444122942
H           4.15809012485954   -2.50649023298149   -0.51148511049604
O          -0.78421122386098    2.83872511071763   -0.14982933006322
H          -0.05350584011532    2.20359568693477    0.04244754273361
H          -1.20698693905672    2.97395214337592    0.70310795430647
O          -3.79642183843512    0.54304240394210    0.81180396995841
H          -4.17792787592513   -0.30002091583831    1.06165675725495
H          -2.89951891117629    0.56352525886012    1.22562389737236
O           1.06972393833373   -2.81546059811463   -0.10121581274918
H           0.77700761212667   -1.89783743729445    1.11625368857696
H           0.41343656427951   -2.31828520243083   -0.61152719418243
H           1.95142932166261   -2.57589957549827   -0.47396959685819
O           3.42945307162621    0.36722232515442    0.31594748723011
H           2.47000241252863    0.53722008227819    0.44525595694085
H           3.49008920666431   -1.10643631680292   -0.50307255710937
H           3.76524226736596    1.13516406420653   -0.14976385787372
N          -2.27784555229387    1.00094964006257   -1.31477480653151
H          -2.53532502629431    1.03932112673183   -2.29454215638653
H          -1.61286367949195    0.18948226441943   -1.08586539781291
H          -1.75274713517397    1.86554801278489   -0.99091934122340
H          -3.09787417127504    0.86965364309623   -0.67602148929893
