    26
        -50.45730810  Gyration_radius:  2.49210139504 Dipole_moment: 3.247
 S          -0.35834810731991    0.22218975229066   -0.99870851873070
O          -1.63959206224031   -0.14255375020142   -1.54665509759919
O           0.25271175201314   -0.89798716411450   -0.26647085646105
O           0.63807909924338    0.54327933419796   -2.17116203784792
O          -0.37161502464345    1.43139500964996   -0.18812633724405
O           0.84506403622361    0.26883256373549    3.31359451067746
H           1.07976406215297    1.10603396404957    3.71902465341519
O           2.15605390174750    1.99969006101546   -0.04266095572666
H           2.45035638258006    1.92334709200445   -0.95374050857508
H           1.16885836606731    1.97535274802842   -0.09294261752949
O          -2.93663064951739   -0.90108276391359    0.69168845550233
H          -3.83313207590079   -0.58121396830774    0.56917261976298
H          -2.46900985959365   -0.71327657660548   -0.14385200118532
O          -1.42775525604219    0.78665411679173    2.19977569782097
H          -0.08735238286366    0.38822563371336    2.95602039802580
H          -1.10377248652153    1.18991706971872    1.37429677565381
H          -1.99498525889343    0.05273933945815    1.89576304336725
O           2.11424430098438   -0.23139644573571    1.19636915739506
H           1.32688981776514   -0.61505123692855    0.57593346010070
H           2.29508771924543    0.68303427484696    0.77852902101714
H           1.64903350213269   -0.06392394157767    2.11988497507701
N           0.06450095022731   -1.81362043724573   -3.09684115129813
H          -0.88007989571379   -1.57898461738952   -2.80480230392206
H           0.44955908687344   -2.42534946385928   -2.38772394122786
H           0.02409877930442   -2.31748274462961   -3.97399766766728
H           0.58797131268854   -0.28876784897800   -2.72236877279659
