    26
        -50.45800462  Gyration_radius:  2.39569762289 Dipole_moment: 3.164
 S          -0.92396560284658    1.25515926087752   -0.20997419546203
O          -2.24117881899762    1.65736470612024    0.19754878142738
O          -0.23397686897869    2.19921577339308   -1.08259489465145
O          -0.00073244551741    1.18814540656505    1.06843711522220
O          -0.90024879156182   -0.09599891890066   -0.78743101142968
O           2.61782959262121    0.39232035063101    0.58533872618409
H           2.05790570302716    0.95397076320260    1.13578673601751
H           2.14107128147384   -0.50056341411585    0.58838272327350
O          -3.11016974857836   -0.74655594120669    0.75331057402496
H          -2.73524042542991   -1.17688611727688   -0.02090154617286
H          -3.00558394343199    0.21246745493150    0.56165804436714
O           0.69737207080140   -0.55109775119047   -2.79095976764350
H           0.26008545283295   -0.28634918456336   -3.60219056325125
H           0.02440742775372   -0.45652515740049   -2.06883371894858
O          -1.17467357996048   -0.63163216224989    2.50607919317463
H          -1.54201678389754   -0.24552610653434    3.30378752275312
H          -1.95204189049567   -0.80037904771666    1.90416885204802
H          -0.41284051016556    0.50080056253195    1.65725156588442
O           2.00354874440582    1.32396166293664   -1.64921730330647
H           1.08769708749462    1.80706839361338   -1.40498828485610
H           2.36889756867479    0.93250456594898   -0.72490583013467
H           1.67904438393751    0.53278966503387   -2.19852671752897
N           1.04546894513584   -1.70430377564070    0.57837502855295
H           0.68692483363959   -1.89004310616136    1.50740439562479
H           1.27853463674542   -2.58803242736666    0.14488104394978
H           0.28388167131356   -1.28187547550204    0.04811353085844
