    26
        -50.45491453  Gyration_radius:  2.431885892 Dipole_moment: 6.961
 S           1.22450326957250   -0.47381762126981   -1.43072708196652
O          -0.13957732479596   -1.01286477933933   -1.72132107636565
O           2.22339178708583   -1.01285394230614   -2.28307234435227
O           1.07209751093150    1.06861546400398   -1.70960319064068
O           1.48907885969067   -0.59915224430069    0.00100651825774
O          -1.60992809081617    0.65811869493833    1.61736061537110
H          -2.25668987158958    0.67733297473918    2.32294635918004
O           2.84198101102791    1.34045474960229    1.19420768931544
H           2.45497010572770    0.51320437465129    0.83586286931737
H           3.63208254544792    1.50912124463779    0.67901347769735
O          -1.30758591192488   -2.96586999526978   -0.33745900750095
H          -0.90224501931597   -3.81203373422982   -0.53254177903239
H          -0.88029711021929   -2.31647304329549   -0.93437537446566
O           0.42523621826927    2.25417085908685    0.51600180978125
H           1.31087013713144    2.14789696406321    0.92281869613714
H           0.86650480633119    1.51750308016359   -0.84516876113469
H          -0.18114808192754    1.76177419178345    1.09042935738580
O          -0.30002199098619   -1.52275485402433    1.72061735362115
H          -0.76828224994230   -2.15868686365965    1.14398021426267
H           0.47991154266583   -1.24636627168995    1.19421628239029
H          -1.09369789927933   -0.21484248311736    1.72837914822364
N          -1.74482384386334    0.79706188857620   -1.03822479550203
H          -1.30029121813845    1.67898966959125   -1.28751277511748
H          -1.05486126514228   -0.03333463601548   -1.36829130133339
H          -1.83158854260501    0.74222957338019    0.00981498054606
H          -2.64958937332607    0.70257675929738   -1.48835790407161
