    26
        -50.45895649  Gyration_radius:  2.39160218095 Dipole_moment: 7.104
 S          -0.71580563282002    0.52783488959873   -1.31269225709933
O          -0.63573895861586    1.42300669089277   -2.43471821026304
O          -0.26142675691846    1.16953286395403   -0.05914737394009
O          -2.00577529135827   -0.10016726526032   -1.08889514381116
O           0.33261973273704   -0.59754150858409   -1.61092357711112
O           0.12042912312532   -0.18685700498043    2.52571024177978
H          -0.13159400554345   -0.58700746917369    3.35999905904970
O          -1.86740370285806   -2.45418656013684    0.22588861260118
H          -1.98224486320413   -1.73528518912679   -0.42530322951325
H          -2.40916400431850   -2.19315097256725    0.97521600310618
O           1.95859299379925    1.78749582269949   -2.40167214566627
H           2.04333446666355    2.72070588622332   -2.60696957526184
H           0.99503666949843    1.58446641746749   -2.50573578799635
O          -2.34943538782076    0.29165115083588    1.52953994985723
H          -2.53465046918134    1.22503050214861    1.64466318710418
H          -2.25871994679508    0.17130708248940    0.55891994203918
H          -0.72055261298721    0.10665791586846    2.10441931992800
O           0.72767529605093   -1.90479388282601    0.57343858155010
H           0.59100145245115   -1.28285718964783    1.32481737341194
H          -0.12311774413057   -2.38720157796617    0.50298273482577
H           0.46322380037660   -1.17055959099598   -0.79966197852799
N           2.20127594129534    0.70997343953759    0.00576052626814
H           2.77328572849521    1.15737282261338    0.71381367853854
H           2.36261548932185    1.09120021404170   -0.96285401057651
H           2.30876830829853   -0.30308635710275    0.02683273767004
H           1.11777037445624    0.93645885000747    0.13657132203891
