    26
        -50.45895657  Gyration_radius:  2.39171832684 Dipole_moment: 7.106
 S          -1.08795169961681   -0.17061356936741   -1.13956817487568
O          -1.00596066101133    0.64572361161894    0.09188340677841
O          -0.35632011325582   -1.51385517197004   -0.80107662367547
O          -2.44124895068997   -0.54670661110335   -1.44641797489007
O          -0.35377455398961    0.49171640034976   -2.20296016154481
O           1.47237899076691    1.47618617323903    1.44342305030210
H           2.26501575704288    1.99386215880786    1.59639805639703
O          -2.90376272885966   -1.96938214192824    0.70392964496045
H          -2.72250700258213   -1.53059232899819   -0.16517757804612
H          -3.80959565896052   -1.73828322092335    0.91910111759342
O           2.32524328960923    0.20620568487420   -2.02810831862818
H           2.53083703016890    1.14245697474313   -1.96265788782947
H           1.38118932317906    0.17652039760075   -2.27697111821110
O           0.70850762124744    2.57225000411828   -0.91010694680138
H          -0.01095415040675    3.17965090695367   -0.73083997141676
H           1.05753471948628    1.85429066343068    0.63363687355773
H           0.29571932393131    1.83474207179642   -1.41069889775274
O           1.87135170517712   -0.92828607333319    0.35167223081539
H           2.29947212264690   -0.66239698728310   -0.48956260965634
H           1.74480744100917   -0.08054291619391    0.83679594358562
H           0.54651436337503   -1.32553284321384   -0.40947480826903
N          -0.74601441891483   -1.04112488990356    1.92701095597044
H          -0.79782589666846   -0.18531241530895    1.21494072074339
H           0.11872477989206   -1.54623448308051    1.73893588061002
H          -0.79407205713974   -0.73737883440070    2.89351719688216
H          -1.58730857551381   -1.59736256049663    1.62237598343414
