    26
        -50.45895642  Gyration_radius:  2.39156661772 Dipole_moment: 7.105
 S           0.66719526419704   -0.08489811234598   -1.43592522391655
O           1.12419138813161   -1.24773084652843   -0.49065755565036
O          -0.50898990116379   -0.52652244337707   -2.16395355848993
O           0.29527351646448    1.03122719639502   -0.53848070082997
O           1.82233635778569    0.22773423850705   -2.23257617734594
O          -1.76531162031281    0.93355175106149    1.56190775321104
H          -2.64862393034225    0.94406718209419    1.93511673634418
O          -2.18157069451691   -2.07187166586265   -0.71378827834964
H          -1.54031351185986   -1.70699685273056   -1.35384777655570
H          -2.95055677686761   -1.50054775987883   -0.78652044863139
O           3.52952566537649    0.51901175268024   -0.26676043554755
H           2.93597077201492    0.30948120688961   -1.03124215118935
H           4.05546230236893    1.26820587921095   -0.55372801226217
O          -2.42037169594807    0.97769035758301   -1.06298971210032
H          -1.88449348113873    1.02982825744562    0.58849523758497
H          -2.28322088984587    1.87103895254816   -1.38221135307491
H          -1.72587014262262    0.44304544809165   -1.50639258083441
O          -0.62950440377675   -1.47667973180640    1.38258036928723
H           0.43176849880745   -1.41119621200073    0.21464560429406
H          -1.02103822577462   -0.58635352263694    1.53796714701021
H          -1.27621041137208   -1.92472335136187    0.79732488702683
N           1.60655277619701    0.59752385157700    1.55274719274441
H           1.62168905149725    1.29785981175197    2.28622263448524
H           0.92628878127287    0.87993764004978    0.71643557255197
H           2.52150707908094    0.51360442964479    1.03733859782191
H           1.29831423234572   -0.30628743698398    1.90829224239775
