    26
        -50.45895648  Gyration_radius:  2.3915518302 Dipole_moment: 7.107
 S           1.25572339851517    0.96823856693183   -0.00007049545569
O           0.89762824866948    1.74088123137635   -1.17622370431962
O           2.55054845141235    1.23894157144184    0.56284901565875
O           0.23498534347882    1.30735158123887    1.13908596756705
O           1.06612070038427   -0.47130416980642   -0.28539064349921
O          -1.44874149296206   -1.73590814422598   -1.14640435161457
H          -2.14696261626875   -1.99329058337869   -1.75128806256443
O          -1.76341491237077    2.02324965095781   -1.53543781808957
H          -1.80257838738546    1.60044492719212   -2.39733231154933
H          -0.80997782783084    2.14673576673801   -1.36318663946322
O           2.27636034061449   -0.16972676263684    2.75468299411760
H           3.14216371295962   -0.56960171196639    2.85813117614690
H           2.36756024892952    0.45500661935351    1.99180982461357
O          -0.01311225923319   -0.16076321831268   -2.81383974987027
H          -0.80914981276342   -1.21234024871173   -1.68274148448983
H           0.35338946442523    0.54759566807126   -2.24043878328626
H           0.75103363360647   -0.66194607684575   -3.10308786240090
O          -2.04114325900712    0.29294256528960    0.48601062976393
H          -0.68014912085004    0.98531983430231    0.88926129136990
H          -2.22520628390063    0.99322700743646   -0.17520174217218
H          -1.86739156095465   -0.51099075364504   -0.05579313612578
N           0.11397073222147   -1.39581802582847    1.84048414653705
H           0.00940138814316   -2.39922330837079    1.94501519272367
H           0.47314643921916   -1.11475620926822    0.82354468788036
H          -0.76832530336854   -0.91171239767159    2.00011912744580
H           0.88412072435909   -0.99255338963364    2.43544273109199
