    26
        -50.45895649  Gyration_radius:  2.39182418619 Dipole_moment: 7.101
 S           0.30120319099816   -0.48569203950390    1.47836667322497
O           0.82103404587777   -0.12257018512116    2.76860355355406
O           1.55537916789715   -0.58723945634764    0.54510079542506
O          -0.41791356729689   -1.74547096572571    1.41242816787273
O          -0.53782663466104    0.58618779286367    0.89796245422851
O          -1.64483858301897    0.61431815762065   -1.83039164444576
H          -2.24377592187354    0.38704654804265   -2.54401416533959
O          -0.41669369458824   -2.88397013677492   -1.03557016960056
H          -0.28524122266628   -2.65129286139625   -0.09606041921614
H          -1.37016504543030   -2.89318543088331   -1.15331833161543
O           2.25015030789165    1.93447632035748    1.99981022300639
H           1.80863869907915    1.10122842239695    2.30179691768723
H           2.11209871854619    2.56471598091406    2.70972872486246
O          -2.61892571591039   -1.04109034903170    0.07549516440961
H          -1.83432179130678   -1.31131702395250    0.60103162670337
H          -3.14738572272889   -0.51434324779749    0.67717434164240
H          -1.96542310142530    0.11674200975011   -1.04268491467220
O           0.72249595275764   -0.61976493881734   -1.89218945256125
H          -0.11533587829806   -0.10331164390313   -1.93044489933218
H           1.26759841105228   -0.66897495683507   -0.41109101765383
H           0.42699881642496   -1.55309121420181   -1.83669409084017
N           1.08371684965684    2.00916091153870   -0.37717930487045
H           0.77177322346554    2.89111992181565   -0.76899812448160
H           1.49803208174525    1.41138475717257   -1.09083343524527
H           1.72962555245901    2.12417098207559    0.44688778911182
H           0.24910185135984    1.44076265576010    0.09508351812756
