    26
        -50.45730808  Gyration_radius:  2.49248423229 Dipole_moment: 3.247
 S           0.13944946097549   -0.56500688549440   -0.91472784818210
O          -0.40554079051046    0.73398166534933   -0.49071816195516
O           0.47154336335167   -1.39321656509930    0.23555725177618
O          -1.05877274154871   -1.31117893019743   -1.60598381295293
O           1.21210774246478   -0.40273130188453   -1.86236277171331
O          -0.02086024769423    0.94768032561816    3.29722158077061
H          -0.06390129398916    0.31351182966432    4.01579676573433
O           2.90007121742300    1.14272299174086   -0.43791368897061
H           3.77350974327744    0.81654041431314   -0.66536279006257
H           2.27551836021877    0.65471353546068   -1.00704744215157
O          -1.87598847357295   -1.91296527882574    1.21112185698189
H          -0.93616678206131   -1.89111574913029    0.90459268667340
H          -2.38019067355950   -2.18159241639178    0.43912856879393
O          -1.79207171669245    0.61717917136639    1.53746100668712
H          -1.96402869739228   -0.38958525517706    1.52671145668650
H          -1.11005731732514    0.80711587122516    2.30975405753584
H          -1.21707723420336    0.76068852930938    0.64273032163369
O           1.97491288612655    0.09568056243184    1.89558052441291
H           2.37294595851544    0.67763828137957    1.22046363574416
H           0.81092680794842    0.72065898843012    2.77933474048190
H           1.51442433395635   -0.58654083232151    1.37449406823935
N          -0.97593691489938    0.55212877023538   -3.41225146237632
H          -1.25479943990587    1.37479455536366   -2.89162820546783
H          -1.22866502773885   -0.73851953918546   -2.40706303976923
H          -1.19161302313974    0.69783260137067   -4.39073082846355
H           0.03026049996556    0.45958468042479   -3.30415848009207
