    26
        -50.45244921  Gyration_radius:  2.65769738763 Dipole_moment: 6.217
 S          -1.16556921564092   -0.07419182543613   -0.57120538391280
O          -0.13330789951895   -0.06371385781226   -1.76298446920355
O          -2.38255604947286    0.50182708703745   -1.09247355894538
O          -1.28073165133959   -1.42662897446951   -0.07497553690326
O          -0.55614933931506    0.83097187117103    0.43640842028546
O           1.38722193410256   -2.09349355188312    2.90180630238522
H           1.15327816801128   -3.02299889143384    2.92134726705895
O           2.69605798912366   -1.27054009264486    0.72637928511288
H           2.22793543446030   -1.50634639647998    1.56183723453858
H           3.58245360096549   -1.62496093825698    0.81141902459015
O          -2.22988826752448    2.90730831656433   -2.02097888906583
H          -2.91420675395150    3.39061989788389   -1.55397642820934
H          -2.36999737994040    1.95136044861965   -1.77506380155353
O          -0.94644681421942   -0.88547090259434    2.52102638198505
H          -1.22204309427407   -1.31129957470487    1.68960461876336
H           0.52801134195889   -1.60464997446470    2.86866124241026
H          -0.73163639836713    0.01032500378967    2.23136037855193
O           1.03786184116457   -2.23163714267782   -1.14486830861812
H           0.40417670974558   -0.91458510855788   -1.66621238523667
H           1.70598322741579   -1.90639755574066   -0.49919575313459
H           0.22176921156679   -2.37423512391950   -0.63876753180202
N           0.23075288737103    2.58528632664213   -1.18107688074190
H          -0.05198148658356    1.88087898290808   -0.36221279977322
H           0.83763217541036    3.33983354748448   -0.87863774220597
H           0.67414428059255    1.99381075520477   -1.88333109933606
H          -0.70276445181506    2.91892769395405   -1.56388957678617
