    26
        -50.45895645  Gyration_radius:  2.39216502604 Dipole_moment: 7.106
 S          -0.13921383090662   -1.44965550805803    0.62283220776494
O          -0.94154710583829   -0.66106253751639   -0.33844800903824
O          -0.21039275581726   -2.85996383804733    0.35273883883020
O           1.35142423341155   -1.05455478967352    0.34737544698242
O          -0.47552127747637   -1.04189628606660    1.97530198093947
O          -0.98094971096509    2.27649555691585   -0.53985945651452
H          -1.21746817665519    3.17597479078793   -0.30612092970665
O           0.65536854140190    1.28877089332541    2.73586687891229
H          -0.16563698352075    1.75736659781271    2.90779441693397
H           0.38856521178669    0.35658379345198    2.61807288477396
O           0.88097383064406   -2.81570177589579   -2.02811824910510
H           0.56670648416518   -2.87719229993252   -1.09099979631797
H           0.35674961036110   -3.45661861555557   -2.51253115305621
O           1.46971514632831    1.51338345600946    0.19762982839405
H           0.60560127490358    1.83397244059906   -0.14965135808854
H           1.39643311931768    1.62935388679511    1.16865194402018
H           1.44927560693800   -0.05717426240162    0.34781755649768
O          -2.15701466054132    0.98292607406621    1.52539280396622
H          -1.57080450177508    0.21690129160305    1.71071540389148
H          -1.43631709278705    1.70028256904674    0.11705833069497
H          -2.97146346700912    0.59542307005041    1.20097013298010
N           0.65039780475994   -0.18397874089444   -2.21402233539148
H           0.91548374681021   -1.19679281360434   -2.33224012318003
H          -0.14151881563709   -0.26946888862771   -1.43411532017608
H           1.41815475518094    0.35460456450558   -1.81571756097346
H           0.30299904273035    0.24202136125286   -3.06639434390325
