    26
        -50.45244916  Gyration_radius:  2.65732840678 Dipole_moment: 6.215
 S          -0.93116767270656   -0.74846046624642   -0.50777907657742
O          -1.98936851264555   -1.02416572483585   -1.45055616203814
O           0.40042982167047   -1.24749720462672   -1.18918107576343
O          -0.73270712254228    0.71682625275550   -0.36840434308581
O          -1.05980483742172   -1.39583903804668    0.77778486244007
O           0.65773852495770    0.83787789423596    3.68596624435916
H           0.51703437647748    0.13466889662989    4.32207905651536
O          -1.80087288610461    0.08454098384970   -3.77596870463328
H          -2.63440982003092    0.54433458522812   -3.89336459816248
H          -1.91562855755381   -0.45896648511935   -2.94809021250065
O           2.46816233547808    0.33294143946644    1.79101980135459
H           1.79799505687358    0.59241580324998    2.46652316444798
H           3.31895754196571    0.38782438775712    2.22881733972246
O           1.53590363739952   -2.03133262857661    0.94386786648221
H           1.95004717534134   -1.19401491224843    1.25428715331559
H           0.62414537905549   -2.01982902279208    1.27708326884248
H           0.96296745904841   -1.63062512841935   -0.44141386926077
O          -1.56172488259142    0.79171140951990    2.22921488534645
H          -0.19518956657061    0.92317708356289    3.19234943669229
H          -1.35362580128436    1.28230804423845    1.42386620111516
H          -1.53883939155314   -0.13168131949856    1.92049061323861
N           0.32580703339764    1.08406748910630   -2.61752859494548
H           0.74657308620562    1.97517433702550   -2.85837323073272
H          -0.48191821967383    0.81081706751318   -3.25161022707945
H           1.00663261267906    0.32495788768865   -2.61778587548081
H          -0.11713678004063    1.05876834846018   -1.59329393357420
