    26
        -50.45800466  Gyration_radius:  2.39568511674 Dipole_moment: 3.164
 S          -1.10261766166160   -1.07518059925474    0.31860509572755
O          -2.12500442041978   -1.76653273209283   -0.41596256350916
O           0.20559137008163   -1.12886501836446   -0.34878791639142
O          -1.48207003213218    0.45522720532479    0.38935007362101
O          -0.98106115972464   -1.46384069246665    1.71967743080029
O           2.33477408362860   -1.36077062038298    1.12993350895433
H           1.57989212661312   -1.32444939084228    0.48799222965557
H           2.47463615302751   -2.28843792457192    1.32823217833746
O          -1.09449062313193   -1.35666272014011   -2.78516766514724
H          -1.61453882443304   -1.66052088199131   -2.00765956322142
H          -0.18377314031893   -1.54370986842350   -2.53841365983574
O           0.35071386357563    2.05742250804367    1.72999641388635
H          -0.58643193471544    1.93085012880764    1.53586867715697
H           0.79867068195580    1.96481871908791    0.82714469518966
O          -1.50931628403859    1.13641291581925   -2.11894271388915
H          -1.31798367948414    0.23729822184036   -2.50642766985780
H          -2.40026702695507    1.35630811797001   -2.39868636191964
H          -1.50835190460172    0.76561216545524   -0.55509887104608
O           0.81583513145922   -0.15470460624688    2.79249395936093
H          -0.01485420423983   -0.71309490300319    2.43185014284470
H           1.58245566133146   -0.56019427719838    2.26253811692534
H           0.66970452114950    0.83595569363901    2.42074579046141
N           1.24123428354746    1.52783608370977   -0.67734727229223
H           0.67639343808523    1.98847937347186   -1.38082454910543
H           0.97888845694261    0.54258741087363   -0.68827226169324
H           2.21197114445575    1.59815567092520   -0.95283722501131
