    26
        -50.46438036  Gyration_radius:  2.41486622854 Dipole_moment: 4.126
 S           1.56946750693987    0.25479039748926    0.38335114039591
O           0.91163586921961    0.90406140825261   -0.75491398699580
O           2.83700065291445   -0.32539864303886   -0.03592377582437
O           1.84666171094657    1.32790190411287    1.46458088047777
O           0.69410527670512   -0.75874513343347    0.97174791037212
O          -2.53295097259493    1.08933928832473    1.05178241531980
H          -3.30618653640873    1.45592308707296    1.48282617064045
O          -1.54655153159485    0.06164246105723   -1.40383202246039
H          -2.09528842571161    0.36117847319274   -0.66571475920975
H          -0.67090186368585    0.46319678792973   -1.23757193957948
O          -0.19141136788713   -2.17719720926711   -1.05467536965142
H           0.11988318510782   -1.84568424908929   -0.18213226387787
H          -0.89076880690234   -1.52234949086585   -1.29793398828349
O          -0.28842586035109    2.66975243160977    0.85511529675818
H           0.01001680769564    2.37174136477429   -0.01757049998985
H          -1.12919175532986    2.19562660451847    1.00698784941417
H           1.05848649833060    1.93569517783970    1.43548327457026
O          -1.34382857806677   -0.67413450682133    2.62139959984986
H          -1.63385745315290   -1.58769711685445    2.65097490929455
H          -0.50579914378762   -0.67921718635280    2.10637154390836
H          -2.15075491589822    0.42324764393781    1.67460399350857
N           1.86721574812009   -1.20263009271673   -2.25168320581867
H           2.41800678939382   -0.89144998093197   -1.37558063932652
H           2.42218930708037   -1.77634342020204   -2.87888224403692
H           0.98354073623019   -1.72658529348130   -1.84704952915611
H           1.54770712268691   -0.34666469705741   -2.70176075030044
