    26
        -50.45800471  Gyration_radius:  2.3956770383 Dipole_moment: 3.165
 S          -0.86307687610781   -1.28268989536058   -0.28807679842914
O          -0.21200051606992   -1.10266440279476    1.13830566856629
O          -0.01296210778189   -2.27957919643935   -0.93024167021831
O          -2.23459399144194   -1.67372698852658   -0.11881294003577
O          -0.72578967327690    0.02037344842152   -0.95371462107357
O           1.23573587217287    0.34853553822288   -2.63233246295004
H           0.96754052793515    0.01729515066791   -3.49125169910017
H           0.43343597189274    0.29793141610690   -2.05174702784343
O          -3.19808033863416    0.75141150478435    0.06178545890826
H          -2.67583462577564    1.12613916784856   -0.65378675497090
H          -3.05746335842896   -0.21780205522374   -0.02859243943164
O           2.44993721990010   -0.30552586002724    1.11955421722729
H           1.79092418249126   -0.83196850785258    1.58923566304767
H           1.98289113250346    0.57778349850471    0.95884359131712
O          -1.64962104257275    0.80252100980810    2.16690190254033
H          -2.29170640114954    0.91238908317109    1.41138544785358
H          -2.16823990572501    0.47289051461223    2.90365169020294
H          -0.73360357081688   -0.37893501321243    1.57800589821052
O           2.29136705947655   -1.41339968231253   -1.11337010221278
H           1.34572875442652   -1.89128745634971   -1.01712474277832
H           2.08126350378923   -0.67168250299112   -1.77564232820607
H           2.46639910864924   -0.94719734386040   -0.16835709257304
N           0.91028584408972    1.76024543849376    0.63869194992802
H           0.26854577340628    1.28605932258506    0.00389628865893
H           1.22372940325708    2.61168308596462    0.19136604774709
H           0.37518805379561    2.01120072574513    1.46142684561762
