    26
        -50.45266466  Gyration_radius:  2.64574731321 Dipole_moment: 7.514
 S          -0.88463482617663    0.73048892647428   -0.86515871603779
O          -2.06128760054971    1.56651638132961   -0.89163964320226
O          -0.69800314287313   -0.13669332936154   -1.99969301923578
O           0.34318317169359    1.71506654719777   -0.76587966830652
O          -0.82683820250023   -0.03062502022301    0.41612619255430
O           1.10651592632292   -3.60056213496380   -0.09482966738442
H           0.91415446720106   -4.15031561373726    0.66600458048954
O           2.66151466825250   -1.45955396240323    0.23239192368214
H           2.06849195608402   -2.24222416499473    0.13703357335755
H           3.54983958693767   -1.78811758524662    0.08200776219625
O          -2.42136759381046    3.14319153005802    1.12177551223575
H          -3.30779544604103    2.94178274755718    1.42779625697330
H          -2.32074262250749    2.64380003196159    0.26435470745850
O           1.97742109102929    0.10364696469692   -1.83973484326537
H           1.17132576104794   -0.29456245227880   -2.20461291081621
H           1.10401818980150    1.21057024696687   -1.20224694791611
H           2.25200690440207   -0.46213833172228   -1.08067197435536
O          -1.21565304379013   -2.45216345046436   -0.66505185522471
H          -1.18429178742461   -2.03190178295077   -1.53418517066863
H           0.23449174316053   -3.23275370625105   -0.38307682732500
H          -1.15207896806220   -1.69066369073003   -0.06210704108218
N          -0.24192347678958    1.91781619674834    1.89598821074004
H           0.50292548580309    2.33792167932416    1.33987616107489
H          -1.11921887182766    2.50762016371469    1.77956543714656
H          -0.48451348723121    0.97211411403182    1.36285273770185
H           0.03246012786235    1.78173969527292    2.86311522917277
