    26
        -50.45730804  Gyration_radius:  2.49209500917 Dipole_moment: 3.244
 S           0.37778492842656   -0.63436188604699   -0.79399809658669
O           1.64114696356234   -0.22554332710791   -1.63500614123870
O          -0.36410102803415   -1.64326090867229   -1.50572014589561
O           0.91591471224529   -1.07236246361509    0.48586380488287
O          -0.40406484520021    0.60267476250456   -0.64297887150705
O          -0.70899500803790    1.31082928008921    3.08957426050646
H          -0.13899985798719    1.17669925664637    3.84951332170895
O           2.65440901715891    0.78615604159479    0.99229695957709
H           2.11633386469482   -0.03741278594335    0.89246140187432
H           3.13576548750338    0.86678208508192    0.16512897834951
O          -2.55092403297113   -1.84581202840668    0.05772632240952
H          -1.81309100666011   -1.73616698504783   -0.57135204662345
H          -2.75895669437024   -2.78267939727128    0.05890143234310
O           0.49713401502789    2.14934753682798    1.04361981717164
H           0.04263569445780    1.54587024492405    0.28112268042203
H          -0.01723606499050    1.88292632527208    1.91640514257075
H           1.43394601535091    1.74759580831854    1.10974425105072
O          -1.11841662595351   -1.09636794209296    2.24526427107601
H          -0.98568229192485    0.39233963349662    2.78759364883233
H          -1.83760036180594   -1.26934622253487    1.60831619038536
H          -0.30659214126289   -1.21310918898778    1.71970312082151
N          -0.00623585398967    0.27428088246650   -3.57837001950608
H          -0.53193439445330    1.06202732190636   -3.21996854409631
H           1.23589385685626    0.02782122440919   -2.51262379584732
H          -0.47425706939620   -0.56700460411501   -3.25311213179312
H          -0.03387729824040    0.29807733630117   -4.59010582088349
