    26
        -50.45244920  Gyration_radius:  2.65743745567 Dipole_moment: 6.218
 S          -0.93619102972724   -0.01729961921554   -0.90205839902787
O          -1.61234009040014   -0.61542115525531    0.39068609158433
O          -2.00074377965057    0.59190918183776   -1.66365133541628
O          -0.01742372843593    1.02381179621816   -0.37488789671304
O          -0.21654772522363   -1.07461486008688   -1.57495990219004
O           3.61693471978198   -1.25186587346540   -0.27381636418473
H           3.76323029580902   -2.05381386537209   -0.77827771922085
O           1.97558320333806   -1.48388040571276    1.81770402736090
H           2.60007621023365   -1.32808369068184    1.07043268342679
H           2.47323944966352   -1.96346512470099    2.48169667121980
O          -3.34209164362851    2.46737483946549   -0.49924519151958
H          -2.94923673240108    1.69782087047107   -0.99656792024858
H          -3.29966267085430    3.20838347857544   -1.10675381035014
O           2.10327082276980    0.21537073009659   -1.88793736533378
H           3.14503925596528   -0.63535674214544   -0.88672980540179
H           1.35693786034986   -0.39625324487766   -2.01967780267269
H           1.71250938157817    0.89818960666752   -1.32788647245861
O          -0.10072324189272   -2.64730478909890    0.58863717030120
H           0.07534514994367   -2.44245317788258   -0.34386132879824
H           0.65365202645753   -2.27168209598475    1.09750142345099
H          -1.12002937717756   -1.47749976876923    0.58245918225263
N          -1.57987245674740    1.94028646082223    1.36645138006771
H          -0.78825813372152    1.62211867988594    0.64641784072959
H          -1.89952430013693    1.07081617865119    1.79253893908862
H          -1.25755744439450    2.60887527216955    2.05798150134791
H          -2.35561602165434    2.31403736278877    0.74380441058783
