    26
        -50.46438041  Gyration_radius:  2.41485874263 Dipole_moment: 4.122
 S          -1.61115694650168    0.20598963946053   -0.18512675720654
O          -2.62781762415332   -0.36628999517009   -1.05567048691261
O          -0.61783855888269    0.93366084751640   -0.98122063454730
O          -2.28988499417211    1.20642843078179    0.78230251847904
O          -0.96383578567610   -0.82851525901472    0.62146517098575
O           1.95787538561299    1.06176538720488    1.93651535548485
H           2.51422688422948    1.41426908166845    2.63238612960061
O           1.93985707641574    0.17028496616615   -0.75956417734132
H           2.18188502322998    0.43213496072397    0.13955768878774
H           1.04804454370199    0.54754754684647   -0.89369223637938
O           0.62995115519335   -2.10599090911132   -1.03094507899129
H           0.01942400003211   -1.83366222876874   -0.30897952464265
H           1.34625306103489   -1.42702105766162   -0.97617086834444
O          -0.12719559413040    2.61636378694060    1.03789949151731
H          -0.08774714008824    2.36767909168723    0.10191889353141
H          -1.56451863886370    1.82704089598074    1.06548575201145
H           0.62242349522379    2.14669220153572    1.45301332171419
O           0.35235813603503   -0.80905580784490    2.89039038239600
H           0.64430471276601   -1.71833396322343    2.97732045292519
H           1.40394950842045    0.35378406680345    2.34830301911294
H          -0.24753804554139   -0.79721124174174    2.11088253631325
N          -0.90799559006230   -1.09117299234447   -2.82682588333379
H          -0.48129215736451   -0.20446604232514   -3.08952449775687
H          -1.18513714709773   -1.63378842169209   -3.63878865775521
H          -0.20549291431986   -1.62542594728718   -2.16323603169951
H          -1.74310185505131   -0.84270703712886   -2.18769586794865
