    26
        -50.45800463  Gyration_radius:  2.39571264724 Dipole_moment: 3.164
 S          -0.24639441065005   -1.38248682523001   -0.70762632388853
O          -1.38573968807446   -0.29071972277139   -0.74052222298508
O           0.32261482114563   -1.32541506894627   -2.04992949444427
O           0.72648069793647   -0.91047110588969    0.28753091462504
O          -0.83213098307668   -2.64433113575722   -0.35039326475919
O          -0.65183983426582   -2.31589733462808    2.23842659005688
H          -0.76559591939292   -2.65682535952186    1.32290057075586
H           0.23779614866414   -1.95016770664237    2.23762517563295
O          -0.53259226209146    2.27821736241517   -1.36981028525574
H          -0.28166314631627    2.22484325225263   -0.39068282319244
H          -1.26165103608120    1.65119415766867   -1.45492771044758
O           2.85705349239116    0.32057276796001   -0.56047404180734
H           2.10556021936462   -0.18066378729691   -0.15145725230149
H           3.51854567833810   -0.33220534684144   -0.79659401903511
O           1.25871292587187    0.92157860081886   -2.46039093973662
H           0.82468698284246   -0.04756781743682   -2.39585839862617
H           0.52589179921862    1.58431920936431   -2.05441244941907
H           2.00975494607798    0.85682567871979   -1.77866974857856
O          -2.24234729166253   -0.30928437794203    1.71347367943302
H          -3.13986919832652   -0.64568641429977    1.75428574783016
H          -1.66164468241567   -1.04485305703478    2.05521779291918
H          -1.75106438113351   -0.26123623412699    0.18396897771358
N           0.04470181347835    1.74701264542081    1.13077021767624
H           0.37236996424895    0.79347101565407    0.97874246572931
H          -0.79752675993446    1.68102441653034    1.68976300651420
H           0.74589011385408    2.23875219757252    1.66904382559206
