    26
        -50.46378407  Gyration_radius:  2.40551981599 Dipole_moment: 6.532
 S          -0.56842757556663    1.22656626435114   -0.26833770508377
O           0.77706861378468    0.75427845626123    0.11923838448061
O          -0.66625035260351    1.43323198552538   -1.68359620344732
O          -1.55459080999962    0.11151219003820    0.19251246813461
O          -0.95761408365802    2.37842686646544    0.54764575901713
O           1.47477314902759   -1.85357988770691    0.16492580519481
H           1.28829114371225   -0.89490176948615    0.15300264248939
O          -0.08536483193965   -0.75076539810561   -3.12662787772369
H           0.86861319902193   -0.66023492957632   -2.96049384673354
H          -0.45280440634332    0.09968591842039   -2.82195678362280
O           0.68528961242208   -0.05729678017391    2.61367902805743
H           0.82165689607615   -0.99933797088274    2.47536761274535
H           0.85339115490299    0.35370982183362    1.73337509720932
O          -0.96305448784465   -2.01349439528544   -1.00058794512597
H          -0.71744806496457   -1.68850801334048   -1.90716958571249
H          -0.11508853187130   -2.22466036388442   -0.56145207002348
H          -1.37052139590374   -0.77147178138547   -0.32372631141244
O           2.27913265773056    0.17306883916469   -2.05067239101310
H           2.50107078699858    0.94628634592492   -2.57143767695202
H           1.76407670983181    0.50418486120349   -1.29004812124532
H           2.18517663376496   -1.97391604943578   -0.46971461388387
N          -1.63522439801089    1.18081270847039    2.64993336965388
H          -0.75854234263016    0.61018766191217    2.82119052029569
H          -2.39105002024356    0.56673043084137    2.35654949782513
H          -1.89214592893232    1.74416230590387    3.45397303584432
H          -1.37041330672043    1.80532269300144    1.75442794103208
