    26
        -50.45730802  Gyration_radius:  2.49198739345 Dipole_moment: 3.248
 S          -0.90900121879553    0.30315600628889    0.50729414256175
O          -0.87307237919543    1.30476344647928    1.71805731260111
O           0.04504993933492    0.84542680069268   -0.47255804390743
O          -0.43186211053156   -0.95638605048377    1.05983085501840
O          -2.24420644639288    0.25080433941999   -0.03046941105180
O           2.73023489964110   -1.80096576427886   -1.03297805708655
H           3.15252999479666   -2.45956740697425   -0.47774720911905
O           1.61876656499910   -0.18206471127194    2.44865101227292
H           1.27840069329214    0.56816307860158    2.94235485351173
H           0.81865777278232   -0.61160808000132    2.05747572677190
O          -1.83969907028753   -1.27762275729251   -2.21393216108409
H          -2.00218803543316   -0.65552718365478   -1.47994923900340
H          -2.62025229758382   -1.83355445877741   -2.26560504391621
O           2.40077013271374    0.42613576694314    0.09632440106255
H           2.26434993985902    0.20038089308329    1.08314538836887
H           2.61430351197051   -0.47105574731025   -0.40041296163206
H           1.40486434158742    0.66802679933742   -0.22303854697037
O           0.25237620134804   -2.53184787970872   -1.00974012058820
H           1.77766663556060   -2.10408002648477   -1.14356979519001
H          -0.01934874800793   -2.11947778625919   -0.17003804768231
H          -0.36742555904079   -2.15979914712097   -1.66565842221362
N          -1.85856552696615    3.06843297578757    0.08771407994409
H          -2.41576429247145    2.28760581317974   -0.24768670743216
H          -1.10299581583799    3.19771021583186   -0.57397924908963
H          -2.43053808495334    3.90377679002900    0.09538140860762
H          -1.24305102237914    2.13917411394124    1.31113383524025
