    26
        -50.46378413  Gyration_radius:  2.40561009307 Dipole_moment: 6.531
 S           0.19708773194931   -1.36137561079885    0.09534322723587
O          -0.55308878278700   -0.87579241258365   -1.18132991728169
O          -0.61811686860716   -2.48653066530352    0.55738219223971
O           1.55713773043035   -1.69243851872894   -0.21399860081457
O           0.11622311459104   -0.24102374333593    1.05565330552547
O           0.07995283060874    2.35158019352164    0.30376681243771
H           0.10518791951958    1.43419362587888    0.63829717608056
O           2.96625050324148    0.36833898275241   -1.19359787319986
H           2.63405178775574   -0.52545620475982   -0.98931812805662
H           3.03817254207077    0.79050228738577   -0.32046333516452
O          -2.37100328473954    0.59087333880409    1.15775684792315
H          -1.45299802574073    0.25966023982042    1.29806966982804
H          -2.26073759440098    1.45709607247346    0.75449669007761
O           0.62001190824688    1.15703396619921   -2.06482913865477
H           1.57678199633863    0.93772970180775   -1.90884433974455
H          -0.06040341975064   -0.06440576907096   -1.60418591503194
H           0.38432032522261    1.80381584798064   -1.37020215211486
O           2.54263917969147    0.86780112661537    1.48462663150220
H           3.14647231946808    0.28338872837875    1.94512429022800
H           0.85720714919090    2.77183023061540    0.67946976539160
H           1.70257573095446    0.37586596981568    1.40894438206984
N          -2.88919279410102   -1.64999389881398   -0.11790764310044
H          -1.92105378138023   -2.11662216469172    0.20867806879071
H          -2.82230373010655   -1.52955977207148   -1.12564734439306
H          -3.69654399841815   -2.20487236595160    0.14696063772433
H          -2.87863048921753   -0.70163917590502    0.35575470056479
