    26
        -50.45730811  Gyration_radius:  2.49234048434 Dipole_moment: 3.245
 S           0.67296329980219   -0.73720282181739   -0.42394621873016
O           0.37078322750660   -2.12250125151731   -0.67779654214964
O           1.91740227017957   -0.30888490296488   -1.28324282606274
O          -0.42205862823218    0.14197216044386   -0.86242381259925
O           1.05882494510916   -0.44627388622939    0.94932760958835
O          -1.59522087696074    2.10972876408025    2.18499811598540
H          -1.16260424705106    2.47209395271498    2.96079460871529
O           2.11693553556831    1.91118524034680    0.71473714232771
H           1.84447352995006    0.98885862939045    0.94452500072054
H           2.70626677446604    1.81326958717744   -0.03722908972782
O          -1.93473036592494   -2.38475320348427    0.69453055299371
H          -1.14889582551130   -2.29994277437964    0.12234437726569
H          -1.88331827742967   -3.26020950796271    1.08440027201413
O          -0.29417669705410    2.42200797361237    0.05128449058945
H          -0.42196647016785    1.45923536849504   -0.40530232762521
H          -0.87340716718677    2.36751186629440    0.92257163743387
H           0.68609215666510    2.39878108382607    0.33768541195506
O          -1.18603389725222   -0.42911397673519    2.43034751715633
H          -0.28932585520545   -0.47591896825499    2.05254472186319
H          -1.55645853510220    1.11011223629511    2.28995931087239
H          -1.70210859769217   -1.05577919516524    1.88826138814450
N           0.59050498302795   -1.15859876031934   -3.34698787611124
H           0.30894776624059   -1.90739153237504   -2.72034806468120
H           1.63124748398410   -0.56036275572286   -2.20698654844440
H           0.74818637690938   -1.54193233933257   -4.27066204158529
H          -0.18232289862235   -0.50589096641954   -3.39338680991041
