    26
        -50.45940116  Gyration_radius:  2.54147451972 Dipole_moment: 6.844
 S           0.57343681513987    0.54676899703641    0.71556136072078
O           1.80981533913948    1.18225908099443    1.18929391358901
O           1.05704214326483   -0.83193456202371    0.17490532183700
O          -0.40822159478713    0.34619252864744    1.75323559673306
O           0.03050584983259    1.27248556848885   -0.43646676309206
O          -3.01058353214864   -0.84767528532463   -0.86115476496733
H          -3.07629112649636   -0.62828598765308   -1.79134583274650
O           1.70491436410074    1.61169922174241   -2.37972861393452
H           1.70385441266265    2.55501731751897   -2.55215175146391
H           0.98054243827894    1.46293226863544   -1.71340959302199
O          -1.43657087489379   -1.99309835185297    2.52508402756721
H          -0.99788152310689   -1.12954683894110    2.38336183929265
H          -2.35792112007886   -1.79681660290208    2.70597810177172
O          -0.92892510071679   -2.33924766087817   -0.08531268514206
H           0.24248044314973   -1.46027867344631    0.03111536501633
H          -1.13171738634795   -2.47271745363969    0.86556534436692
H          -1.69924453239242   -1.83672908531651   -0.43899011112175
O          -2.49494977298313    1.46524667119354    0.35714671976426
H          -2.26758258662023    1.24161095614547    1.26613455126513
H          -1.62058877429127    1.55181588537376   -0.06940817453599
H          -2.92411023056246    0.01299337688021   -0.38493725323693
N           3.30165639095754    0.40918177693254   -0.66896306360353
H           3.06160759720965   -0.58087699361867   -0.70201127700124
H           2.84555239701529    0.89890820325818   -1.48842022368744
H           2.73939366780665    0.80162599375723    0.22466922535683
H           4.30378630691267    0.55846963900614   -0.61975123968372
