    26
        -50.45871478  Gyration_radius:  2.56101498128 Dipole_moment: 5.901
 S          -0.18433257916880    0.51101186758537   -0.98512034590126
O           0.72641402529228   -0.28374302670225   -1.82244823508460
O           0.44253795504497    1.69140906682161   -0.43834724780670
O          -1.43876925265801    0.76923615632798   -1.68691590154529
O          -0.58959600672912   -0.42182053676256    0.20590140182785
O           0.98452757857800    1.13033696089010    3.41270282213240
H           0.40179767449279    0.81982739879737    4.10722147912369
O           2.86140960994894    0.37373661877165   -0.34044527317814
H           2.52946330366922    1.26955595078351   -0.21167344064473
H           2.27573051617216    0.01277418777972   -1.03008905267726
O          -1.98350374338350   -2.63031703170596   -0.48119433703553
H          -1.45464682105283   -1.90041659741338   -0.09704099325702
H          -2.83359283273973   -2.60372597500552   -0.03867655131379
O          -0.49419411008612    2.68711871967716    1.81286962456126
H          -0.26752297436412    3.61769764988422    1.76537712608706
H          -0.22547010745679    2.30557680824558    0.94762189328296
H           0.44698001677457    1.74345967176306    2.86066505892393
O           1.44290227757848   -0.76917931253988    1.59707470474751
H           2.14242232278325   -0.43612778638815    0.98540832804066
H           1.37087964805044   -0.10060010060737    2.32052432425907
H           0.25859495929804   -0.59694990186090    0.81869715709554
N          -1.30652289443108   -1.48328256440181   -2.78901437025441
H          -1.52258924255323   -1.73428143818127   -3.74696989219723
H          -0.28064609159913   -1.31033867396082   -2.60662271345451
H          -1.63871772605810   -0.49811792362708   -2.47731311708396
H          -1.66355549535840   -2.16284018817524   -2.08219247863631
