    26
        -50.45940110  Gyration_radius:  2.54030554116 Dipole_moment: 6.853
 S           0.01361171975749   -0.51744242897396   -0.93525986610668
O          -0.63519433459013   -1.07144325548321   -2.13075815772405
O           1.44770201924426   -0.41457893279828   -1.05021894541852
O          -0.60779041085446    0.90552459470778   -0.81062670181070
O          -0.40101463120314   -1.25362016322550    0.26261725345975
O           1.71679374508434    0.63225124306229    2.67343464390943
H           1.12502768329404    0.42599116358158    3.39795370811718
O           2.88885413288106    1.82429730356309   -0.85651308320307
H           3.67980730923141    1.55511201945049   -0.38514862412081
H           2.40855379974952    0.99947909694984   -1.07365420589072
O          -2.96199617451399   -1.41471271910906    0.59227016857213
H          -1.96956920145961   -1.33803215033553    0.57979573567961
H          -3.14483420176262   -2.35036875361599    0.69588625752616
O           0.79595434807854    2.26215501578032    0.76154077467370
H           1.59005288929558    2.36055395337881    0.19334245079015
H          -0.05635245289530    1.47336162681096   -0.13756418705317
H           1.09577619986812    1.70958122119559    1.52028784631362
O           1.98991213257852   -1.65897313194323    1.34059450706028
H           1.05024158902738   -1.66898275671477    1.07433153658290
H           2.44219302379387   -1.43811678745984    0.51919786837724
H           1.91316366167686   -0.22818171238923    2.23061717038974
N          -2.92563456000426   -0.14637261594298   -1.71272621742662
H          -3.16580368923413   -0.64575314640553   -0.81141343806953
H          -2.70033410411151    0.82486180083879   -1.50108507914435
H          -1.94065865859321   -0.60055375062840   -2.01694556781165
H          -3.64846183433323   -0.22603673427400   -2.41995584766731
