    26
        -50.45871476  Gyration_radius:  2.5609384741 Dipole_moment: 5.906
 S           0.91979363035495   -0.50399909642197    0.40702470867299
O          -0.47723290310265    0.18909353413801    0.55132269895353
O           1.70000436966140    0.25102570274312   -0.54511852986134
O           1.46564419613811   -0.50557444999046    1.76162091839598
O           0.64030178092697   -1.87555832962938   -0.04324918868545
O          -0.64002748443107    2.93797830135727   -2.20284728234739
H          -1.25554493920380    3.57265384957447   -1.83308790113819
O           0.53429713848357   -1.14011543381931   -2.61919879645872
H           1.25208114670115   -0.50856740502029   -2.49573435612157
H           0.54141381492433   -1.65462360711630   -1.79208228321655
O          -2.10165956735923   -0.87037314950089    2.43061357348360
H          -1.63950920270596   -0.41682432009800    1.69527772982055
H          -2.30449401802033   -0.19101969938822    3.07602628143683
O           1.47242819788446    2.87488897848457   -0.55890029994839
H           2.31423566674032    3.17761632455561   -0.90441246364710
H           0.15517872589159    2.96052642746548   -1.62247235677675
H           1.55942495971059    1.89983188495324   -0.46888243009055
O          -1.42206687105343    0.43066624269821   -1.73701987253756
H          -0.82498318709403   -0.16843802878759   -2.24587663621153
H          -0.91341671457397    0.30233096874735   -0.40908870284830
H          -1.18637547529120    1.34971323463360   -2.01146299923083
N           0.02529940632176   -2.47379044680650    2.35907032661721
H          -0.91590618339552   -2.07767619859209    2.57380785284549
H           0.10387114092226   -2.61722788123776    1.31565046080711
H           0.73338726923670   -1.65255967797226    2.40833952443544
H           0.26385510230890   -3.28997775492139    2.91068000363418
