    26
        -50.45940111  Gyration_radius:  2.54041135981 Dipole_moment: 6.853
 S           0.15934274576206   -0.53608914628952    0.91128538634676
O           1.01797493820471   -1.12763962569358    1.94559495112902
O           0.77670136857072    0.87695044447755    0.69048100923310
O           0.31250616606600   -1.25453974364836   -0.35728502509235
O          -1.22128110293203   -0.40829352109795    1.30873466008760
O          -2.19622899066706    0.72110179355021   -2.27073313748903
H          -1.76715774495763    0.51872844065349   -3.10298583995052
O           2.75427243623134   -1.46012480947591   -1.18744967478508
H           2.89101941523501   -2.39701901164493   -1.33955659999660
H           1.78573665243583   -1.36384915401440   -0.97858497409644
O          -2.62142023051921    1.86140659503208    1.43819463759874
H          -3.49537413513589    1.61707602796578    1.12732191081138
H          -2.12672732986548    1.02334585294788    1.54321804047906
O          -0.87712927425803    2.29188330978321   -0.55275765519594
H           0.11711210210773    1.46866239096117    0.14815856033151
H          -1.33346810491135    1.76101936864079   -1.24632275687447
H          -1.54142916682349    2.39436814112249    0.16223370225431
O          -2.25238334126607   -1.59152052012308   -0.94848687071819
H          -1.27903144469619   -1.62467154807510   -0.87327055907820
H          -2.52875008014193   -1.37939790364422   -0.05034507386217
H          -2.32024056946687   -0.14443283624943   -1.81202000921938
N           3.20196395784898   -0.23835218774830    1.09927434055174
H           2.28619335699490   -0.67962733236598    1.58445429109557
H           4.04790316040279   -0.34619257261583    1.64858669125112
H           3.24835021991078   -0.72390029870092    0.16032887347878
H           2.96154502586965    0.74110784625699    0.95193110168713
