    26
        -50.45852418  Gyration_radius:  2.50912458546 Dipole_moment: 1.941
 S          -0.71973815714915   -0.80483345486588   -0.91979218428498
O           0.55219476613199   -0.77940851751275   -1.62922951852508
O          -0.62834119794928   -1.55507668949999    0.32337845136670
O          -1.19479301395622    0.56599112565563   -0.66956406015044
O          -1.77868512417318   -1.50412151124951   -1.80380136018905
O          -0.27280666918992    1.88489815174458    2.77501280902674
H          -1.11507946361294    2.32043161851492    2.91687392739725
O           2.29499495380275    0.35058979957915   -0.03344126118500
H           2.28198235578126   -0.31003662720825    0.69024229292883
H           1.79696113585373   -0.08708463489490   -0.76467808634383
O           1.71266733465793   -1.76164408773958    1.53592682112965
H           2.17876302594875   -2.56100268290892    1.28664339236149
H           0.85554421544468   -1.78397441197761    1.05269883576660
O           0.50161202339607    2.04560421503985    0.36144734530941
H           1.35488724957012    1.43031245434578    0.24964391720236
H          -0.25616925171078    1.48294578414846   -0.11523099157442
H           0.24289149868640    2.05094401883458    1.35861323134047
O          -0.71781055913334   -0.68728154632137    2.85634251402224
H           0.11258850755710   -1.11893097493521    3.08272514048586
H          -0.44620631091075    0.90709069411208    2.87215109624863
H          -0.90978404895649   -0.98480311099045    1.94503069768756
N          -1.18138603203616    0.25986388486445   -3.61707676628384
H          -1.74879477406197   -0.94161886115751   -2.62719800067927
H          -1.18526771996664    0.35555168478431   -4.62451244001192
H          -1.49984959443278    1.12709166513323   -3.20388132999923
H          -0.23037513980868    0.09850200411405   -3.29832446285289
