    26
        -50.45852417  Gyration_radius:  2.50915215021 Dipole_moment: 1.941
 S          -0.42830083626060    0.58577821029044   -1.21886249639863
O           0.68456035576748   -0.19013402334117   -1.74923833855091
O          -1.36629129448373   -0.29004582868616   -0.49736594996488
O           0.02999671415102    1.66903074114635   -0.36259937934713
O          -1.20602371488409    1.22384907672666   -2.39360445808621
O          -0.75865891572066   -0.39206227110930    3.25597027998716
H          -1.68963572127882   -0.38640751314255    3.48500818540833
O           2.35878801935690    1.43789112530773    0.86876920475904
H           3.07241439378917    1.83499623515895    0.36737073481199
H           1.53998693520301    1.58915223812885    0.34400648375967
O           1.98213999695303   -1.17020195175754    0.30428497025713
H           1.63438743687023   -0.90200652745351   -0.57967027010754
H           2.27326857302141   -0.32689269841918    0.70961527725838
O          -0.19311462132073    1.96748067191684    2.29013978273476
H           0.75297509531565    2.10770700426148    2.40123314988248
H          -0.32519726373361    1.93192977318116    1.32207828680515
H          -0.54262632902077    0.53248192025332    2.94893631585738
O          -0.28479931870970   -1.76448923737025    1.17194104111570
H          -0.80638809798902   -1.19454454699717    0.45006819357287
H           0.72711140408050   -1.61259929630792    0.90315730721511
H          -0.45135046223621   -1.28049454576634    2.06591678517962
N          -1.45257778195733   -1.19276879728752   -3.31852197471352
H          -1.56659211748888   -1.66742208787631   -4.20497602511044
H          -2.04307739276503   -1.63957558416070   -2.62868092343116
H          -0.49019323133683   -1.28814518957943   -3.00746835766098
H          -1.45080181538476    0.41749307286803   -2.92750782537973
