    26
        -50.45871481  Gyration_radius:  2.56119644888 Dipole_moment: 5.904
 S           1.01781903670050    0.47815968288260    0.00508593522626
O           1.57608666941019   -0.81536594109167   -0.31183939827902
O           1.54352482315901    1.57267118846330   -0.80637061170260
O          -0.51163853122574    0.44455412548020   -0.33046881871178
O           1.10521786643292    0.80283539748608    1.43657443752821
O          -1.37693897062585   -3.25876983399648   -1.17466753011454
H          -2.13656127780562   -3.17221562185852   -1.75252182547991
O          -1.80693388604678    2.79658656337859   -0.04494440393778
H          -2.17983839543222    3.04403391105541   -0.89281699719637
H          -1.47761381713990    1.87978832477616   -0.15029691934638
O           0.81475306484671   -1.76146936522829    2.16213964166908
H           0.95418309797596   -0.79739763290073    2.16636728173663
H           1.34385932315703   -2.06046418369992    1.41384935942608
O           0.67836037556886   -2.09208500985873   -2.43359802859441
H           1.41363865171507   -2.64921208881400   -2.69563576684665
H          -0.61536406236607   -2.87569846127967   -1.66734143947819
H           1.01426489202874   -1.54472450111948   -1.68930308977914
O          -1.48307779518079   -1.52026688102079    0.84552042535400
H          -1.49308672708833   -2.23994124883568    0.16914685804150
H          -0.75014603368872   -1.74093934032178    1.46890550038925
H          -0.96080942000466   -0.38095779647747    0.16199101828388
N           0.66316042840112    3.24490767027737    0.84749009551284
H           1.10462392932904    4.09017011408071    1.19102271283325
H          -0.34893260641806    3.35792576282974    0.61970570227342
H           1.13362380154269    2.79050693813429   -0.01860610157485
H           0.77782553275995    2.40736822765729    1.48061192276618
