    26
        -50.45852412  Gyration_radius:  2.50923764482 Dipole_moment: 1.938
 S          -0.47713683001111    1.28938256523569   -0.34969302495111
O          -1.24188981060773    2.62581211916625   -0.49457689643828
O          -1.45851665234646    0.26369674446641    0.04055976013258
O           0.13257492044613    0.94791398278180   -1.62774546798808
O           0.52181518896056    1.47174504291532    0.69217028417924
O          -0.03828525099917   -2.37145630565827    2.38829608900859
H          -0.82374170669009   -2.42034142331587    2.93589748144824
O           2.84657605500530    0.22992278407332    0.47650205892091
H           3.51104045016010    0.77938275873977    0.05826381892755
H           2.03152254800097    0.77924745771257    0.52772525711243
O           1.46005866260905   -1.28181238119302   -1.27129077532791
H           2.11541510906179   -0.95916265177495   -0.61803685510971
H           1.02585976965024   -0.45835743567688   -1.59942626586569
O           1.06212985131018   -0.04518314910002    2.83311881064645
H           0.40498685029418   -1.50672740225164    2.61520795589394
H           1.99483907758492   -0.11740517554270    2.60526919003361
H           0.69713257845155    0.58573885655380    2.18155549607488
O          -0.59130291466390   -2.05272154837373   -0.07014720991472
H           0.31328667990054   -1.87123018281971   -0.58784149336933
H          -0.35749512888321   -2.27063506201692    0.90913923305192
H          -1.03877054368624   -1.09521930928702   -0.03903198442215
N          -2.53075245459483    1.48059344475387   -2.43976637709840
H          -3.05589638247540    0.75581574832153   -1.96736518602599
H          -3.01263779074271    1.73129523108001   -3.29359742347059
H          -1.87323617122433    2.41086776909531   -1.23644391602065
H          -1.61757611447040    1.09883754259337   -2.66874256937308
