    26
        -50.45852412  Gyration_radius:  2.5090622746 Dipole_moment: 1.937
 S          -1.20438034348401   -0.43388396318070   -0.61195962178476
O          -0.38402537081917   -1.59208287980242   -0.93957883481265
O          -1.46167113859026   -0.34282330115594    0.81704827726544
O          -0.57249900492342    0.79927997058682   -1.10918742608318
O          -2.57319290570075   -0.56650784169998   -1.31960146943974
O           1.51170700929371    2.59686433280986    1.51636580568041
H           1.22970429699421    3.47457002546501    1.25309585748514
O           1.87799011881177   -1.31914513308416    0.35207208076478
H           1.11150392686424   -1.59470040159324   -0.20556232792970
H           1.52892281826926   -1.35361026813041    1.26715679589151
O           0.26081155868801   -1.42777021705603    2.50477824063637
H          -0.44229168372427   -1.10603091374226    1.89578108822054
H           0.01313739889002   -2.32110445625690    2.74763931547694
O           1.80707399611250    1.04007901321500   -0.46860998162281
H           1.77734008112147    1.68511382753896    0.33410078537653
H           1.98252772896331    0.06525100014807   -0.09647212740396
H           0.80860179722113    0.98269272934782   -0.81160850017883
O          -0.55011004781891    1.42581498001030    2.61100155310822
H          -0.21607683240573    0.73469234222220    3.19228354683079
H           0.73480891879669    2.18560519714516    1.98856520636337
H          -1.02855678758085    0.94562096570809    1.90649690910712
N          -1.21817991061200   -0.78859131294696   -3.52675711097654
H          -2.29329972633043   -0.64810688578035   -2.27366920675379
H          -1.30814727046104   -1.20815708921549   -4.44324219975731
H          -0.79223778378069    0.12424046228973   -3.62415607231149
H          -0.59946086358844   -1.35731016252323   -2.95598059311545
