    26
        -50.45896437  Gyration_radius:  2.46097741904 Dipole_moment: 4.074
 S          -0.65952666805472    0.50849059807763   -0.43589308396532
O          -0.84592448079277    1.77003748876701    0.24962422931473
O          -1.28419406837417   -0.61321560043558    0.23499715092169
O          -1.29536674636123    0.60029749842357   -1.85838408250498
O           0.77902355887027    0.24280752202342   -0.66348577958766
O           0.99531085467548   -0.41960733591050    3.16876095339576
H           1.56153488780476    0.26366737286115    3.53143640854067
O           0.24256373931211   -1.85201915797494   -2.28380393689629
H           0.57562186710950   -1.05527853294015   -1.83393915047567
H          -0.60005164215321   -1.59030315281851   -2.66241178072436
O          -0.05413153634509   -2.93378171341902    0.15368146910292
H          -0.72112133578982   -2.22164630142669    0.28240669220246
H           0.11390969667931   -2.90484093069660   -0.81198416422846
O          -1.29327467513269    0.73494113966287    2.65148838518955
H          -1.13786281587619    1.28276006041593    1.85447660960942
H          -1.85053970036280    0.01885558013151    2.33032503413605
H           0.10102876777004    0.00237571952870    3.02942739113651
O           1.74487671426456   -1.41417557246503    0.95090427596452
H           1.05688634785711   -2.20010257093695    0.69154019894540
H           1.45868214208398   -0.67498579376541    0.28628763165819
H           1.48008422805479   -1.06803114635643    1.88224729507650
N          -0.01500172207434    2.82401355091474   -2.23089856088378
H          -0.90465288450988    1.45034462518058   -2.22016067877411
H          -0.15709878318439    2.91192478503941   -1.22729864960795
H           0.96647995788276    2.63855055885807   -2.39166453459157
H          -0.25725570338614    3.69892132929789   -2.67767933298218
