    26
        -50.45852422  Gyration_radius:  2.50899038023 Dipole_moment: 1.941
 S           0.84050632585265   -0.16325699760828   -1.13148344720500
O          -0.27864534628529    0.48231379008220   -1.80411046899710
O           1.87302145083117   -0.61781455981199   -2.18939392301626
O           1.52145782692448    0.74728093359744   -0.22380096810759
O           0.38462723624898   -1.36819091441036   -0.41898311323059
O          -0.37241847837003   -0.76115808737502    3.25765677383185
H           0.01019453691528   -1.58945549516233    3.55220317640698
O           0.17652449674130    2.77408366583234    0.81361551086508
H           0.72201495619562    2.08960760443619    0.36346980045015
H           0.27742436954553    3.57533371266634    0.29769883658810
O          -1.93603337572664    1.28018845226151    0.06065712284404
H          -1.34954962844117    1.92179620484732    0.51314332533108
H          -1.45120932583634    1.05930168483809   -0.77024289108204
O           1.59960297137346    0.75073889891073    2.45406199169892
H           0.39508132221664   -0.17172725034764    3.01436855382075
H           1.72895184301353    0.58922820709451    1.49854686402940
H           1.30452921412378    1.66569790251203    2.50792647722413
O          -1.58267270040761   -0.99300409687291    1.03672883138360
H          -1.85463043493506   -0.02441068655984    0.70936298591382
H          -0.76931961963869   -1.23321648214975    0.40526089058139
H          -1.17341674673109   -0.90621441877035    1.97810682284378
N          -0.08630221444596   -1.92296236766003   -3.29152324367766
H          -0.62065852227748   -1.09064830829241   -3.05967690931520
H          -0.30462630988513   -2.62937189909214   -2.60053131279964
H          -0.36786380014403   -2.25828749196743   -4.20383190286656
H           1.31340995259101   -1.20585197827457   -2.76922977409130
