    26
        -50.45940105  Gyration_radius:  2.54169409483 Dipole_moment: 6.832
 S           0.20312928793290   -0.18562101147785    1.03089988616590
O           1.29665378083681   -0.35840604485839    0.07012746339958
O          -0.68310876689544   -1.32308638068678    1.06782251828120
O           0.72986184459541    0.19392051091001    2.34828590756155
O          -0.58304591290052    1.07962609202042    0.57504126703631
O          -0.85045831881490   -1.39676772457817   -2.80385354872087
H          -0.20611443089051   -1.09247176651943   -3.44417980430380
O           2.89560109462658    1.66745228858370   -0.11606259914014
H           3.77371449602150    1.31014270951046    0.02829566554335
H           2.29149169639247    0.87750609446566   -0.15915680850535
O          -3.23677017635672   -1.35905683033143    0.29131145716463
H          -3.34576108948141   -2.21823430639215   -0.12114184277971
H          -2.35549402718090   -1.37241841857702    0.71722524207413
O          -2.09465828465326    0.45218269587915   -1.32347385995128
H          -1.19244958493586    0.84509493360928   -0.23296297665422
H          -1.64160653331655   -0.17683707606071   -1.93192302701128
H          -2.73168713761421   -0.09962580773060   -0.82078860254541
O           0.56855503142558   -2.69371349684124   -0.95939559274456
H          -0.03959676717333   -2.86819397624544   -0.23292208801207
H          -0.35384378908975   -1.96773297063200   -2.16937386055178
H           1.02678342331614   -1.88199767452026   -0.66754754218715
N           1.31785251203851    2.56408729167467    1.78897101746157
H           2.06025989451684    2.40201525884440    1.05279707122970
H           0.45947887028329    2.86651808627488    1.33000667828108
H           1.08206528513319    1.52861028963609    2.16448881685627
H           1.60914762222558    3.20700722408061    2.51750917214479
