    26
        -50.45940122  Gyration_radius:  2.54118908742 Dipole_moment: 6.846
 S          -0.97646625619622    0.38780649713057    0.19262072229611
O          -0.61260099696241    1.71013185982371   -0.25403528416572
O          -0.72830344341783   -0.64083319807773   -0.95062660932071
O          -0.16969031763491   -0.06075137738490    1.33136402423326
O          -2.40806570036044    0.23787692708726    0.48432510793556
O           3.14722168274130    0.76649483662184   -0.15817271062377
H           3.59080162501544    0.11122635239784    0.38184967520121
O           0.52344114934018    2.33133650747626   -2.58872051760386
H           1.14414896065808    3.02922969648350   -2.36982825172789
H          -0.01410589350566    2.18413196603763   -1.78401346089833
O          -0.70482767005623   -2.45502716271572    2.15288794976611
H          -0.38775664528994   -1.55896295775795    1.85713207580095
H          -0.88479928032751   -2.36577733430220    3.09058573312113
O           1.46660972246858   -0.11876228480755   -2.04296234980318
H           1.21055806652644    0.72109146172113   -2.48144613346834
H           2.13469822295161    0.14325823482468   -1.36771446968392
H           0.19288069996338   -0.45893228733125   -1.39504150746191
O           1.47877845562978    2.01168295090334    1.50484196301871
H           0.93839446959755    1.20947532096598    1.64066289872607
H           2.60253791035076    1.30652831183805    0.46375707091305
H           0.91174485071662    2.56018994222415    0.95196812746691
N          -2.52231731158602   -2.25491278454598    0.26128343858692
H          -1.88275543928881   -2.54130097597053    1.05410995292503
H          -3.41750233258616   -2.73177831549214    0.27606877069950
H          -2.60144639277220   -1.13678588812941    0.37118397754481
H          -2.03117813588282   -2.38663632896635   -0.62208019348517
