    26
        -50.45852422  Gyration_radius:  2.50900735885 Dipole_moment: 1.941
 S           0.19088655711804    0.75078827749307   -1.18871330915244
O           0.45139844819511   -0.57111197895781   -1.74222916845403
O           1.23040104004792    1.15885954567254   -0.25620113821935
O           0.16987259078628    1.78568870136669   -2.33782676629933
O          -1.13246519550527    0.78533130450768   -0.54453322781473
O          -1.00975569766097    0.17282811619269    3.20632988805906
H          -1.67259118548339    0.83398294166547    3.41309537821208
O           2.62287001066527   -0.69801726705325    1.01108027796737
H           2.18879288998992    0.00656387010677    0.47830347396482
H           3.43630117548110   -0.91410995724082    0.55284121021421
O           0.54068432328808   -2.24138755034352    0.27343010318364
H           1.31923819892138   -1.86913555160878    0.73781230701890
H           0.54104824735510   -1.78028417385804   -0.59930064376439
O          -1.52409342263013   -1.06749219856404    1.05038401670384
H          -1.44052476319794   -0.27534995929589    0.35498911456014
H          -0.69015389450362   -1.67434768142245    0.81470471131653
H          -1.35210012124329   -0.63528923471743    1.96953483894977
O           1.12236970520367    1.45032899007179    2.40474351857086
H           1.06398460622426    1.54767601605633    1.43369143293249
H          -0.18259309466630    0.67537909681259    2.96360132039107
H           1.87828274113762    0.87078490037463    2.54564679893744
N          -1.66502152639361    0.29442923931908   -3.41774110563817
H          -2.43831379603983    0.38293788326631   -2.77094494220581
H          -1.07724139557774   -0.46729600189074   -3.09165509544513
H          -2.02855672398522    0.06790916301880   -4.33456350183619
H          -0.54271971772341    1.41033348878343   -2.92647946219246
