    26
        -50.45940119  Gyration_radius:  2.54120987789 Dipole_moment: 6.845
 S           0.97553882896844    0.36640543457276   -0.23502762435549
O           0.22452699992661   -0.32941667583389   -1.28409520215945
O           0.70163586669414   -0.41075287233501    1.08699164965060
O           2.42046238016208    0.19924483058472   -0.43798782329985
O           0.56761038281006    1.74184304410961   -0.08538710095847
O          -3.16598855282257    0.69682882849382   -0.11504250070368
H          -3.57669120577659   -0.06648358398585   -0.52301783890930
O           0.83882722303790   -2.82639991073543   -1.56981825002564
H           1.05343236578203   -2.92879351964031   -2.49882166636644
H           0.49283082731224   -1.89749912462877   -1.47826360247923
O          -0.67164011336519    2.79912158512710    2.02958829023873
H          -0.09987562912622    2.50402476368694    1.29185325746642
H          -1.29622144257047    3.42026240177989    1.64978612662066
O          -1.54520032886583    0.26448882781215    1.96964595169348
H          -2.19058486629008    0.36362366949410    1.23162079474547
H          -0.24018035878047   -0.16682229328541    1.45130513789186
H          -1.32323910307444    1.18322609603119    2.23371229005517
O          -1.45682266944728    1.61645305123520   -1.94049066728908
H          -2.60708938132430    1.11110714138438   -0.81586963381208
H          -0.92277751346762    2.28178525390623   -1.49305402033571
H          -0.89600683031588    0.81850366244786   -1.88870238025623
N           2.57534561507268   -2.18952255667509    0.30124696309252
H           1.97373331543998   -2.65111077586071   -0.43665231710953
H           2.05220517637301   -2.14975033029836    1.17510154089570
H           3.47982487118359   -2.63399598284890    0.41673791002177
H           2.63634414374982   -1.11637095453390   -0.03535928384988
