    26
        -50.46972927  Gyration_radius:  2.43102544752 Dipole_moment: 5.117
 S           0.33449382555688    0.90446310665808    1.23937011974879
O           0.38409311877226    0.79776596319456   -0.34412165592717
O           0.02748114240318    2.28757731494413    1.49310749282022
O          -0.76961408573181    0.00362085329089    1.62830819634283
O           1.60318522273621    0.43336659329543    1.74161915632914
O          -1.25143211941405   -1.08640650429739   -2.26901370956771
H          -0.49002725236139   -1.49638073872714   -1.82075977018968
H          -0.88222887073986   -0.56735190173450   -2.98593767066543
O           0.59810430578266   -2.25201708104686    1.67177844233780
H          -0.00255982771459   -1.48854225258206    1.79712618317820
H           1.42117549799931   -1.98159207586419    2.08912639285381
O           3.31700035679333   -0.62666112121548    0.02208424927782
H           4.04682744230625   -0.02167465162303   -0.11215751407566
H           2.75155172666138   -0.21866921596390    0.71479643931419
O          -1.60553046673100    2.89485809483224   -0.42396621226147
H          -2.22017256472456    1.41127788317590   -0.47480196956735
H          -1.02664557274030    2.77683940599096    0.37528100713921
H          -0.99459072968936    3.09406261778348   -1.13628758199070
O           1.01946300606979   -1.68268349456335   -0.85765582346145
H           0.82219986770881   -2.08053631462183    0.03048908392890
H           0.65294768697932   -0.13536096036560   -0.56280577380861
H           1.97867751782698   -1.51827266245703   -0.83257877421497
N          -2.41885995775164    0.38326319728196   -0.30511173823654
H          -1.83345446375955    0.14941296134846    0.56337906286083
H          -2.05676986831620   -0.19291360980661   -1.09998639990725
H          -3.40531492787176    0.21255458303858   -0.14128120231339
