    26
        -50.45800454  Gyration_radius:  2.39563356183 Dipole_moment: 3.159
 S           1.21511418942480   -0.87292707193789    0.48429395449310
O          -0.19372317896358   -1.16899574074607    0.18867554997385
O           2.11415003817348   -1.82378311461484   -0.10753399257688
O           1.49432325990082    0.54509324562421   -0.14994239696160
O           1.40485480582085   -0.65284788489263    1.91409545526939
O          -0.13750797102147    2.59162481455718    0.78430450557907
H           0.74823981800501    2.37942074689054    0.46438628713932
H          -0.74975342647735    2.14629967193593    0.11253481073524
O          -1.96085544404382   -0.73369345762845    2.04902706387297
H          -1.35487578546641   -0.97795103318264    1.30309928950379
H          -1.99355063932079   -1.49611920478556    2.62959578188595
O           0.60186328887632   -2.39722593632900   -2.16377575034267
H           1.28777848098191   -2.36755497214483   -1.45962398488748
H          -0.22516981477787   -2.44755055773163   -1.67519550554902
O          -0.22530989096290    1.01624230478288    2.72061917024798
H          -1.05307649180544    0.44484882275450    2.57469007518635
H           0.55227558221307    0.34277434641523    2.44915136533092
H          -0.22553078807288    1.76536129246129    1.95918734414384
O           0.97250886012818    0.14121326526426   -2.66411624704049
H           1.31002209240211    0.44185495272732   -1.12171171201543
H           1.77244567287878    0.20874821985853   -3.18941304385662
H           0.76828881716684   -0.83353829284242   -2.60612155887611
N          -1.45374838520943    1.14122452640944   -0.95707321357377
H          -1.07403187542892    1.26270976280231   -1.88832777103699
H          -2.46249933238782    1.11222000235272   -1.02632938366546
H          -1.13223190203972    0.23255128197051   -0.62449610299100
