    26
        -50.45852417  Gyration_radius:  2.50906660651 Dipole_moment: 1.939
 S           0.81203172955285   -0.71992507916328   -0.91367725358672
O          -0.45681298299691   -0.86744012305268   -1.61372852893651
O           1.88589341540467   -1.57435487375741   -1.62681473987237
O           1.27653386058441    0.65873819674290   -0.92500005945807
O           0.69804795425028   -1.22197741250376    0.46552611541256
O          -0.05014250643087    1.50278775591065    3.01119795237040
H           0.53737185479091    1.14741214579289    3.68031888323980
O          -0.49308248939113    2.61068114187935   -1.15272122132840
H           0.18923665805499    1.90152735262637   -1.16858427562784
H          -0.61460212824073    2.88226572610825   -2.06367977999896
O          -2.19130675122931    0.66366937576795   -0.38594196733274
H          -1.69726719394518    0.03874603575335   -0.96881752576186
H          -1.76784867938785    1.53080577197438   -0.55641540966228
O           1.45162291680219    2.42297538341178    1.08300847060659
H           0.94003676730781    3.08592704516297    0.60778842831224
H           0.53669715593369    1.90672597615360    2.31249436547588
H           1.58105559035734    1.70114724337115    0.43640210662649
O          -1.24499288768360   -0.32010570456486    1.70723293279348
H          -0.42155734552592   -0.77515256579049    1.22491564437555
H          -0.83574119045295    0.42683061577187    2.28679344856692
H          -1.76244991890063    0.13664493271536    0.90527817718129
N           0.27625304700913   -3.58436747038612   -1.27243694080145
H          -0.44043775698201   -2.90687327047705   -1.51617876453159
H           0.26683124893027   -3.69141843372234   -0.26614737491614
H           0.05433252208062   -4.47471879660389   -1.69913096407131
H           1.47029713182292   -2.48055098949986   -1.59168171906540
