    26
        -50.46277160  Gyration_radius:  2.42510353549 Dipole_moment: 6.145
 S          -0.06483488718489    0.92862603423712   -1.29139220978307
O          -1.39613026516773    1.17055009228287   -0.70741104972979
O           0.56708584246530    2.13303017475003   -1.75852436850492
O           0.85012774187694    0.46394036664293   -0.08610546404972
O          -0.10675957569130   -0.17743451896423   -2.22918599895559
O           0.93533015893659   -3.13396184638905    0.69160059022857
H           0.39765742213427   -3.85567124700474    0.36026249485828
O           1.06464582619407    3.15429067697579    0.60976879460556
H           0.86087977226964    2.89611813441966   -0.32481022456832
H           1.97247345950916    2.87397199378080    0.74516420924022
O          -1.97849034392475   -1.50863358456413   -0.86139405170934
H          -2.70960368803863   -0.88958782312928   -0.92491896093885
H          -1.30554903892593   -1.14872311915691   -1.47518179387899
O          -0.58568006640298   -1.08390437499078    1.36638313727900
H          -1.25096912390605   -1.27401622532096    0.66187475364766
H          -0.00813597877605   -1.88494066110049    1.35017978240316
H           0.34607448608420   -0.20188842489121    0.47478102697819
O           1.83727948409238   -1.86979846545106   -1.50866269481599
H           1.11866117236984   -1.32098901251643   -1.88338385816218
H           2.53895636335013   -1.25480387435294   -1.28740637199926
H           1.33234058673553   -2.71633574728339   -0.10654455380144
N          -0.89277735330510    1.74716517054501    1.68988895902604
H          -0.03406810580191    2.33063217013137    1.47079299010250
H          -1.26758503200460    1.53693199318125    0.67385796195080
H          -0.65620099252258    0.83555329674698    2.09092585264759
H          -1.56472785437714    2.24987883140191    2.25944102787823
