    26
        -50.46277166  Gyration_radius:  2.42503058146 Dipole_moment: 6.143
 S          -0.45731532692392   -0.13720697657521   -1.51852839475986
O          -0.25536486276862   -0.92413141632045   -0.15999521185205
O          -0.52502817020481   -1.17593202418300   -2.51080408977500
O          -1.65109575940509    0.67067544685535   -1.35530568914886
O           0.73598901692873    0.71547122249085   -1.66329788907884
O          -1.46874201341317    0.67372363015476    2.92498663654658
H          -1.79415481135967    1.56230468846912    3.08071834106286
O          -0.38385656946728    2.60463328703313   -0.01355441484616
H          -0.98466548891866    1.99655166003144   -0.49147856792663
H           0.22601631190471    2.91139918139461   -0.68853532122956
O           1.44294027502684   -2.63377131107860   -1.56026208098508
H           0.96066913964406   -3.27220433008527   -1.03020261452553
H           0.74017472787791   -2.12693236278650   -2.04046448621257
O           0.75648637276050    0.74026668642218    1.50524113568669
H           0.07788027823803   -0.28841841724051    0.54478913913480
H           0.47921285788003    1.54515936577284    1.00489899504413
H           0.07486723593477    0.67384535935612    2.21688911844554
O          -2.89901927929254   -0.23498385290649    0.83186264125536
H          -2.78706731413358   -1.18130930925140    0.72466675247997
H          -2.04113181028985    0.30702023496617    2.21299416936879
H          -2.55322216253696    0.16308667186147    0.00722357579995
N           2.50788531177183   -0.52508604726861   -0.37760425914078
H           1.85200227547751    0.11722323307218   -0.98968608567126
H           2.24356485214399   -0.34298346907524    0.59442994467592
H           2.20984296466353   -1.48871459705593   -0.70658200057737
H           3.49313194846724   -0.34968652404848   -0.54239934372848
