    26
        -50.46277161  Gyration_radius:  2.42500020043 Dipole_moment: 6.146
 S          -0.59962429420529   -0.15411725688694   -1.46617309068854
O           0.75749384211046   -0.69415392139784   -1.66207360590724
O          -1.61310627518421   -0.94154301499177   -2.11499696873706
O          -0.91009211369936   -0.33349475477379    0.07562742749801
O          -0.62988950031291    1.27183560794388   -1.73122251509739
O           0.10744476211136    2.38468012921322    2.33855451821415
H           0.64909353781147    3.15932381183817    2.17647405840789
O          -1.48425702125469   -3.00159097614834   -0.49066271629004
H          -2.19886338311036   -2.80224766507602    0.11819329758757
H          -1.56164382742108   -2.31392267156814   -1.19967799129870
O           1.85077036244929    1.68181662526815   -0.82301183890607
H           2.35330019315457    1.16084714216139   -1.45369527703518
H           0.94423387405185    1.69774460714554   -1.19319790279879
O           1.25336177095128    0.23175276797693    1.32731933224014
H           0.90612067303971    0.94812363238049    1.91189244572534
H          -0.10481891130220   -0.05516731958495    0.61046733345464
H           1.65984837661159    0.73186421834143    0.57920157258000
O          -1.76268408299662    2.42601823657617    0.40111194783937
H          -2.46731846457875    1.80378867087742    0.59037320181413
H          -0.62507310223708    2.43656447481366    1.68302522574262
H          -1.36357143629195    2.11986349723971   -0.43856036499407
N           0.99328490491519   -2.38462938252169    0.18690781199292
H           0.00210220231508   -2.75462316425784    0.10667883558751
H           1.12588871404058   -1.79282040853221    1.01153355768337
H           1.68563089096341   -3.12394062751826    0.13476970843692
H           1.03236833807295   -1.70197226849298   -0.67885800308362
