    26
        -50.46277162  Gyration_radius:  2.42496905523 Dipole_moment: 6.146
 S          -1.44773502996163    0.59349785755290   -0.29288484343627
O          -2.80996544512419    0.13843604980372   -0.21892732652696
O          -1.17026570813321    1.88346568923282    0.31006067812082
O          -0.64374780580662   -0.48002241719686    0.54795255043377
O          -0.89421907575571    0.52334624844761   -1.65684804095535
O           2.48449242047405    0.61449415199489    2.14855618424410
H           2.98061804104585    1.42946304304391    2.05167389471254
O          -2.29990441720889   -2.41135525133490   -0.59011681702292
H          -2.60748565078322   -1.47249872799339   -0.51609941870644
H          -2.26992684519195   -2.72779061488190    0.31548925158853
O           1.18502658183855    2.16095007631583   -0.92365120891508
H           0.89739021168027    2.19347242021893   -1.83899130176122
H           0.35361141120782    2.21395544844948   -0.40882356458709
O          -0.03686792806154    1.39441707813752    2.68465156958707
H           1.58019280407007    0.89033871472388    2.42273284526130
H          -0.46341399758438    1.69765851822627    1.85751795222406
H          -0.56731295343149    0.65592475777464    2.98927187379862
O           1.79705354767202   -0.33120793302287   -0.21872577154091
H           0.33502265827867   -0.40890010820131    0.32689943555441
H           1.71003939840738    0.56939291906789   -0.61431348385994
H           2.21863757389207   -0.15093428721141    0.65606062667630
N          -0.03718239280164   -1.83660080364225   -1.82576878488538
H          -0.37927693976927   -0.79136212243068   -1.91148111344766
H          -0.85245757096702   -2.27330348211739   -1.30566831069323
H           0.12185226015257   -2.27224345548203   -2.72775025561404
H           0.81582485185275   -1.80259374960268   -1.26081661023334
