    26
        -50.46277163  Gyration_radius:  2.42501107852 Dipole_moment: 6.146
 S           1.27704647939023    0.80188253721196   -0.51023067613579
O           1.99452451538567    0.96923332426547   -1.74529527945503
O           0.36667255076138   -0.46677752494707   -0.77005133437016
O           2.07965255633259    0.50229150262834    0.66050316315729
O           0.34397537241498    1.90905266639155   -0.23591934550164
O          -0.60513940482115   -2.48577622939095    2.15034706423344
H          -0.50027829122966   -2.31476090188725    3.08818953025830
O           0.12802915987632    1.11086652526502    2.38313459193201
H           0.93721504920380    0.86119172575314    1.89118656653877
H           0.01684325853462    2.04555977710276    2.19420912665204
O          -0.04153181629927    0.52256240820189   -3.34346887866859
H           0.07726711895734   -0.40972078176200   -3.53804913412629
H           0.77017708237530    0.77654395062093   -2.83534071311910
O           1.84813627210751   -2.12778714033599    1.09866597455475
H           2.03133378077834   -1.16902563405624    1.02572599461085
H           0.30244639382504   -2.43448725929052    1.77254576142767
H           1.88903567309888   -2.46414037141874    0.20156600719415
O          -1.55248168492711   -0.34835231173631    0.92377599100360
H          -1.42302115465003   -1.22516554837598    1.35957578001357
H          -1.09163346529099    0.27508698334388    1.53534112673073
H          -0.36466309161607   -0.49682410920368   -0.07988876223457
N          -1.74942249592457    1.23357301577874   -1.45795885473174
H          -1.24524212245248    0.84842610472736   -2.30846906246977
H          -2.45474008771635    1.91889258997275   -1.70599376862601
H          -2.12684732898380    0.49525563721510   -0.85771590938839
H          -0.90735433912614    1.67239905405743   -0.89638494949845
