    26
        -50.46277161  Gyration_radius:  2.42511390536 Dipole_moment: 6.146
 S           1.03049895710908    1.13854038222485    0.41942643131906
O           2.45615674918815    1.32717421185543    0.41192768177617
O           0.80862465911667   -0.10954988242945   -0.52855802286665
O           0.51439870077812    0.73044715539431    1.73819357455489
O           0.23869148119324    2.22222713595537   -0.13109226887236
O          -2.42433392321072   -0.36183008907429   -2.27323978608512
H          -3.23021556670236    0.14704890963754   -2.16696097085810
O           3.10059845146462   -1.21152084710958    0.61209298080640
H           3.24619340011663   -1.43855754108156   -0.30896705520550
H           2.96857655434012   -0.22963837646136    0.60891499596468
O          -2.04330745202906    1.35542414067903    0.95860950990151
H          -1.82938384870531    1.43658532810325    1.89106645417384
H          -1.30158014126265    1.80369633760202    0.50252457153500
O          -0.47952141722261    1.47258942011891   -2.59790485578917
H          -1.72239240558535    0.29912456672371   -2.47185098930435
H          -0.25911459534187    1.86688852053041   -1.72958974364528
H           0.33104240099644    1.06228701540907   -2.90478004819854
O          -1.47803723011297   -1.09265444991962    0.08085863309084
H          -1.80818555587320   -0.27692638398491    0.52882180957215
H          -1.90431886014284   -1.04673131828003   -0.80887627117379
H          -0.11030437599987   -0.48683351726608   -0.36983674130149
N           0.77044058832226   -1.77285915905243    1.72309492171350
H           0.00970276175169   -2.06877650501920    1.10539895966043
H           0.78531504501035   -2.30246710381034    2.58793066813259
H           1.71291260821861   -1.77103754741569    1.23574651955503
H           0.61754301441817   -0.69265040343743    1.88704904147160
