    26
        -50.45688573  Gyration_radius:  2.53966454394 Dipole_moment: 5.612
 S          -0.73574100059931    0.51010330792687   -0.50767353169609
O           0.21246731667765    1.05517278482635   -1.49007881780928
O          -0.91711369723343    1.50277138108214    0.64322570039796
O          -2.04777820128664    0.31565400177991   -1.12204756554489
O          -0.22077305861582   -0.74726482621993    0.03671513813575
O           0.78699427477327   -0.16311916240721    3.70720837491731
H           0.52616043634688    0.15448994661229    4.57307198614115
O           2.59762570266269    1.08208214085071   -0.33767032141912
H           1.74234251150757    1.00069727781214   -0.81216985008756
H           3.03656592910488    1.84854631830384   -0.71178588052263
O           0.02669650799949   -2.54436315580511   -1.84916286560600
H           0.06234065048136   -1.92030544438445   -1.08088107203987
H          -0.43612201506703   -3.32017811939359   -1.52738021493167
O           1.24093644324537    1.72338690218689    1.87430226084898
H           1.88544505859388    1.42104310293517    1.19609951655966
H          -0.01014429646582    1.64303456555382    1.17161164165676
H           1.19840959291547    1.01748523093263    2.56284082110579
O          -1.46934293233424   -0.76497128627498    2.37307420174635
H          -1.93785872024153    0.06538220590312    2.25173346522124
H          -1.01399013139687   -0.91764271132973    1.52008049623614
H          -0.02826000146872   -0.51417380282932    3.28245207197354
N          -0.90911821940186   -0.50623008344402   -3.21837150312547
H          -0.55829477996216   -1.45551062647200   -2.91827776846655
H          -1.18264459594054   -0.44605890487792   -4.19297290874223
H          -1.66524965275376   -0.22844066225581   -2.49721389266189
H          -0.18355312150764    0.18840962899526   -2.92672950228714
