    26
        -50.45688576  Gyration_radius:  2.5399863369 Dipole_moment: 5.615
 S           0.35661965414618   -0.83316587438031   -0.48790041744206
O          -0.57754451806749   -0.23906753941159    0.46965535620019
O           0.18310040810094   -2.28306986672941   -0.55696545074084
O           0.16207828747060   -0.23191743774019   -1.81512203510180
O           1.78484383665782   -0.57071773824233   -0.00421957204069
O           1.42904765947321    1.95670905018014    2.92060225538520
H           2.16266569658413    2.01309168375779    3.53480442829917
O           0.21324329693802    2.39691753400635   -1.49445439877670
H           0.10471058959412    1.42993857331276   -1.62285055683353
H           0.59836120446065    2.73077747397832   -2.30702209754544
O          -3.05325081732710   -0.72617075198028   -0.22295366377360
H          -3.46885057705096   -1.10090955574464    0.55581318510101
H          -2.16642136163077   -0.40493750262579    0.07935882760367
O           2.09110216870894    1.88094369133751    0.33614292297287
H           1.81809542557427    2.02993881154805    1.27293150260106
H           1.95944031797333    0.46625457913446    0.12341158395408
H           1.37638301647855    2.24869081261656   -0.23021826208922
O           0.76821812189450   -0.64207872575006    2.71563155559393
H           0.14029348916227   -0.50371963652400    1.97748601092353
H           1.52372852402038   -1.07765149274386    2.31162660047308
H           1.10214319962144    1.02951632255128    2.96201851553515
N          -1.74546166098485   -1.94588863919049   -2.14809086578159
H          -2.49398983080806   -1.56889758975494   -1.50621341617649
H          -1.00688494567232   -2.40400539509146   -1.50427105513025
H          -2.09140148595809   -2.52306536668884   -2.90671857551040
H          -1.17026968937665   -1.12751541982466   -2.45248238769623
