    26
        -50.45688581  Gyration_radius:  2.53952812044 Dipole_moment: 5.613
 S           0.50154436049446   -0.65952864980837   -0.61054534202338
O           0.54643668369841    0.29088306977130   -1.73120260523356
O          -0.64422596799683   -0.36068877610413    0.24995897095819
O           0.43632312716539   -2.03152363403766   -1.11062011846834
O           1.78103233161997   -0.54082154966252    0.22107335079780
O           0.67153997651451    1.05076583373451    3.58290950345163
H           1.25900225053600    0.93247370911939    4.33090542584260
O           0.36563407384385    2.72215682823727   -0.69484380411567
H           0.88936246950727    3.27252672481396   -1.28042075565443
H           0.34672760016784    1.83077648833412   -1.10511609280645
O          -2.89015440293371   -0.63764356600660   -1.06374784597608
H          -2.10589597794711   -0.41317518919303   -0.50196162967136
H          -3.43328115319071   -1.21636310086146   -0.52548916646700
O           1.85360270646889    1.71440581381207    1.28382111122764
H           1.38451348822404    1.59056241590291    2.14342478523675
H           1.85913178049354    0.41754617308930    0.66509677107879
H           1.24894889979960    2.22540969377786    0.70069139062498
O           0.23306674417235   -1.38491466105421    2.53002270282588
H           1.08099685182328   -1.68727887473340    2.19340603241475
H           0.40283682670924    0.14901115275937    3.29497588680790
H          -0.23669815380917   -1.04307580214071    1.74213937943899
N          -1.14183982343247   -1.26248812551303   -2.92290853010937
H          -1.28784205759003   -1.60111296326652   -3.86752424722499
H          -0.56735294216456   -0.39095134502644   -2.85741791437068
H          -2.02831635497217   -1.08330638448751   -2.37843824003507
H          -0.52509331720681   -1.88364528137909   -2.28818901854219
