    26
        -50.46223568  Gyration_radius:  2.40043383363 Dipole_moment: 9.371
 S           1.36090445218084   -0.41291221612694   -1.19293997079318
O           0.74529859137718   -1.63066026852940   -1.69987819471932
O           2.66346424283632   -0.09534377397305   -1.68539630025615
O           0.41062065458498    0.71866468685640   -1.38462456323166
O           1.51202174079100   -0.59333968896906    0.35860421457602
O          -1.36500049566201    0.93238576271417    1.77482778748519
H          -1.67252025869491    1.40694804540631    2.54787186295638
O           3.23550871602444    1.50941078172643    0.41723544738986
H           3.50574948244173    0.82643299307382    1.03462474114029
H           3.10611825800283    1.04000380914862   -0.42893073230123
O          -1.60661844583841   -2.26831807836902   -0.97583092640186
H          -1.83217227354281   -3.10100654112369   -1.39226986213853
H          -0.67135617615412   -2.05294056531824   -1.29448577464056
O           0.63668002820356    2.22813591848928    0.77160613293503
H           1.59043827806022    2.11323240378855    0.94768774487845
H           0.55804148066254    1.85557957652529   -0.12823077085294
H          -0.53082078100665    1.41395786220619    1.47439105713617
O          -0.55424067993273   -1.69526274463888    1.49814064055900
H          -0.94511615183171   -0.84477292211462    1.75894508941094
H          -1.06872849742191   -2.04428659320745    0.75222606051792
H           0.76673789858558   -1.10354450012168    0.77124529387994
N          -2.01543731925421    0.36508964174909   -0.78640294014188
H          -2.17428473338064   -0.65248884230269   -0.90278724012541
H          -2.66666745652399    0.91995583198305   -1.32928898661226
H          -2.02127979535577    0.63206128171810    0.21801269890537
H          -0.96734076915246    0.53301811940956   -1.12435250955820
