    26
        -50.45688577  Gyration_radius:  2.53983938321 Dipole_moment: 5.616
 S          -0.70367473845607    0.41012698727440   -0.62872337040667
O          -2.05965414438272    0.19171089601642   -1.12922852168781
O          -0.29811654022993   -0.66893399616876    0.27332460861798
O           0.24417796469762    0.50879070880625   -1.74818496421200
O          -0.71686708257264    1.72406653001773    0.15618391997945
O           0.96233688443843    0.90446014545007    3.55774934580460
H           0.78223825410290    1.50416299640129    4.28335362112566
O           2.67578040734796    0.60635878379628   -0.70172494541135
H           1.79275858020808    0.48471043269928   -1.11248609939304
H           3.17580637747365    1.15828095270859   -1.30625429554608
O          -0.34361767171401   -2.97601923323683   -0.96059980170461
H          -0.20121606042368   -2.15407434050523   -0.42664171584646
H          -0.86841589118113   -3.55477174972239   -0.40449463307315
O           1.51510959955600    2.06107540741956    1.21689731578161
H           0.22717848401430    1.91401511644974    0.59747212674674
H           1.43458996610450    1.61449184022853    2.09348856776990
H           2.08661031477714    1.48888576081971    0.65766175311400
O          -1.41222800504699    0.18566657736593    2.51975858851554
H          -1.02260368946695   -0.27681003140486    1.74997175542633
H           0.09344482967515    0.53612757437554    3.27910520905548
H          -1.79549748386017    0.98654953052100    2.15176331046653
N          -1.12829515729645   -1.36528107897729   -2.88256390011343
H          -0.86533451097817   -2.20986641991335   -2.30656284060727
H          -1.44564038816021   -1.57724689248731   -3.82206163374072
H          -1.81075921413508   -0.79098323048417   -2.27135194760775
H          -0.31811109449494   -0.70549327748312   -2.83585145305983
