    26
        -50.45688573  Gyration_radius:  2.53983297243 Dipole_moment: 5.617
 S           0.45399025083309   -0.14590449831223   -0.91198403484917
O           0.18323787453609   -0.64079271178923   -2.26043654341058
O           0.96028352031610    1.23327459531540   -0.96608508149729
O          -0.75024761257884   -0.20188308681351   -0.08180337463185
O           1.51403735238958   -1.06312266695325   -0.29724061838053
O           0.10562820045051   -2.07706763226240    3.17455895663659
H           0.47349596757062   -2.86612320112238    3.57528258246452
O           1.12647621688294    2.09873405639283    1.53210573642708
H           1.87709452170992    2.69593203890318    1.53023975260170
H           0.99127288675176    1.82975294693366    0.59794910583245
O          -2.65763574111438    1.26245106868431   -1.11361984601550
H          -3.42382666943731    0.68803394896026   -1.16421561985881
H          -1.98435417361166    0.75932807440672   -0.58961203881466
O          -0.64939568496255   -2.73737095051633    0.67931757882089
H          -0.29682451527494   -2.35967883364760    2.32220065014177
H          -0.84549325883100   -1.81625653081472    0.41218977867552
H           0.15750640001705   -2.95943940193031    0.20674651090710
O           1.87741580704997   -0.40707290638396    2.08151981847821
H           1.21842121809368   -0.94455812799637    2.58271217132258
H           1.71486231726496   -0.79380460161021    0.70721190277443
H           1.54828848807962    0.51940529358188    2.08194082451967
N          -0.74014767109068    1.62615055048810   -2.87285469819295
H          -0.75082342323999    2.12563400474987   -3.75529390470188
H          -0.00780070992921    1.94901203288573   -2.19935436645113
H          -1.65767949691182    1.63608364991485   -2.35110859299545
H          -0.43778207496113    0.58928290893359   -2.92036664980288
