    26
        -50.45800469  Gyration_radius:  2.39571785877 Dipole_moment: 3.164
 S          -0.79053492685559   -1.31573424838037    0.34191809161678
O           0.44065591925587   -1.03702861726807   -0.41050153857918
O          -1.67132207409594   -2.21135420778954   -0.35444280741649
O          -0.47816167316785   -1.70190580855749    1.71384492870991
O          -1.51507576134932    0.07705416203265    0.50397660489356
O           2.66676739969949   -0.79278868445121    0.91562911587174
H           3.03655828349344   -1.66501350807296    1.06371722437315
H           1.87973656847980   -0.92087939724180    0.32616399728405
O          -0.94375871515413   -1.50350172438030   -2.76541854698393
H           0.00094222358314   -1.47422456692567   -2.58667930968883
H          -1.31883837261907   -1.94356584030558   -1.96981359746687
O          -0.02037117992728    2.03398592222554    1.79230498162466
H          -0.91252116890162    1.69223453850947    1.65363109702785
H           0.36959678087554    2.07567975490599    0.85930616573231
O          -1.88622666665095    0.79928593329916   -1.96512950401369
H          -1.68306527618918    0.39754925072097   -0.42237173419570
H          -1.51647820883085   -0.01717175141120   -2.40313086465125
H          -2.82190551688499    0.80727865127993   -2.17682288479323
O           1.03164478694328   -0.03082646066459    2.72441868942169
H           1.83135947994579   -0.22634320738150    2.12842641659836
H           0.62813850711191    0.90578560870403    2.40708402768913
H           0.33255300989494   -0.76179524665296    2.39409891554594
N           0.79156202883374    1.79822967078622   -0.68850412887318
H           0.76952192472181    0.77953481310764   -0.72576788909900
H           1.69532263830605    2.10595059041963   -1.02278025651134
H           0.08389997948288    2.12956436348163   -1.33315719411774
