    26
        -50.45800463  Gyration_radius:  2.39565953739 Dipole_moment: 3.162
 S           1.52522865964709    0.35344040708613    0.14815424332153
O           1.87887097599110    1.32596327435382   -0.88043425914819
O           1.11203737760840   -0.92666698883089   -0.67740580778267
O           2.59372269802988   -0.00230023236571    1.03943315413251
O           0.31121159310897    0.77359305734499    0.86202421653234
O           1.06497290111290   -0.82413854503082    2.99670938453578
H           1.80448874988701   -0.52584512766085    2.42105817681184
H           0.42860381104061   -0.10486691505015    2.94265109300397
O          -0.97672611302825   -0.54346303860355   -2.46979121722100
H          -1.48434944184863   -0.64704002316110   -1.60035565648382
H          -0.15419923568328   -1.02446221790090   -2.31465971571717
O          -1.10613603560054    2.70833120388496   -0.14839673617598
H          -0.60344023674332    2.00317093961455    0.33467809386856
H          -0.73383141180548    3.54551513681736    0.13426850836985
O          -0.08722751848070    1.78438683373255   -2.30102829826661
H          -0.51852753514344    0.82055794732889   -2.46256169312220
H          -0.64199822965090    2.24079872921149   -1.58211137662346
H           0.82441479574339    1.59884220600063   -1.78491129999066
O           0.32597846879928   -2.55882589671104    1.18640186315980
H           0.52868647355074   -1.97761000864098    1.97139776728303
H           0.80332314665669   -1.58888799423034   -0.00270644059918
H           0.92427756528192   -3.30575403986060    1.25426721643326
N          -1.93291346530260   -0.77180072406629   -0.04031532985132
H          -2.84593538278665   -0.44298280707159    0.24514542016122
H          -1.22959221191299   -0.19484642407575    0.42027803814338
H          -1.81094039848590   -1.71510875211697    0.30821066522559
