    26
        -50.46460211  Gyration_radius:  2.41138658688 Dipole_moment: 2.665
 S          -0.56330151905962    0.30388796817945   -1.24036149800769
O           0.62777810309103    1.12928146226680   -1.48068884697590
O          -1.50026327531879    0.95373729162054   -0.34569290322258
O          -1.27499109846085    0.08164640685229   -2.59441263190705
O          -0.15668836557687   -1.01013853446864   -0.72609582998379
O          -0.55823698584773   -0.45025319089418    2.96423751337059
H          -0.80754340129280   -0.80963078112140    3.81633341979261
O           1.72109547014302    1.63836547816092    0.70108255149617
H           1.35143115024045    1.53610117010927   -0.26896166895989
H           1.83259289395872    0.63679286042513    0.99860697021934
O           1.55672358692084   -0.79863836329605    1.27231209164951
H           0.94009359594814   -0.79713290449281    2.02891629823038
H           0.99862572244347   -1.02053052850285    0.49082767351620
O          -0.47576296056856    2.04017885420625    1.83166194522479
H          -0.54740313989302    1.27176964194789    2.42912577678539
H           0.87431823113692    1.95916138978480    1.24535386635596
H          -0.99938603648057    1.79466236628607    1.03520853269992
O          -2.11953501816433   -1.29868868102964    1.04096459445397
H          -2.52701089123493   -0.48137655561825    0.72691596417574
H          -1.42350336455378   -1.45979388513172    0.37355032669291
H          -1.20330126470100   -0.82226782479683    2.29843180375446
N           0.95244149932425   -0.95353217593075   -3.42436123036280
H           1.42739045632688   -0.14559339578476   -3.03623573509029
H           1.43001480856162   -1.25187920861603   -4.26531765175599
H           1.00226085286335   -1.69249434951688   -2.73359836580431
H          -0.55783906981037   -0.35363449062925   -3.13780297635499
