    26
        -50.46460205  Gyration_radius:  2.41142588629 Dipole_moment: 2.666
 S          -0.80196571234665    0.91510933391132    0.68377839040729
O          -1.18353743807287    2.04872223823507    1.66287089285475
O          -1.27155515962794   -0.33582898485636    1.24523662516256
O          -1.42752980070046    1.20278977036459   -0.61378500898901
O           0.65929504046731    0.92066188990046    0.53837053081538
O           1.31390392531691   -2.75025202226648    0.10454495289770
H           1.88813006655611   -3.49711974711288    0.27724306805156
O          -0.96195971710579   -0.68055051359174   -2.17933074453332
H           0.08375019162402   -0.63928387975374   -2.08449394547164
H          -1.26238283288425    0.15070116760214   -1.62537129411307
O           1.45114575325613   -0.55011737339248   -1.50706667165718
H           1.29048230845039    0.09348472396227   -0.77808826212731
H           1.59225847951073   -1.40605874613014   -1.05966964159301
O           1.16318403532793   -1.12740449405243    2.15394049223956
H           1.21376577191064   -0.28785309281609    1.65548027495585
H           0.22807435814522   -1.17573829244805    2.39033249463822
H           1.31503079365984   -2.19248025266647    0.93322114276795
O          -1.35305225216441   -2.39840678518500   -0.40108939684980
H          -0.45500222938807   -2.74781958085634   -0.24632056022492
H          -1.49072105041017   -1.72542439889590    0.30383351668813
H          -1.22921192453477   -1.49054929310349   -1.55600191464620
N          -0.10081376647526    3.67863895386209   -0.03803947572200
H          -0.02392206083514    4.66227408227330   -0.26333296726622
H          -0.83368228592809    2.85775388799134    1.19154477099142
H          -0.62830169794601    3.20713007607638   -0.76494206574206
H           0.82461722427255    3.26762136295607   -0.02286523352991
