    26
        -50.45800465  Gyration_radius:  2.39567521758 Dipole_moment: 3.164
 S           1.25822242334496    0.38488331401733    0.86112528370491
O           0.86255898128599    1.29450960567571   -0.36656171866519
O           0.46211477208923   -0.84212388225873    0.71829587369610
O           2.67147243714010    0.13425986494651    0.80805650238906
O           0.81213090611686    1.15525360433737    2.01711358036863
O          -1.72140538258957   -1.06447911463984    2.11695922902159
H          -1.49824825346221   -1.39350838837442    2.98953946454542
H          -0.88316542673506   -1.08927908383771    1.58777961648315
O           2.52747332432375   -1.96042897414554   -0.75217877060239
H           2.79838245621647   -1.24375075357139   -0.13547687518944
H           1.77549625741034   -2.36843576784552   -0.31255694732369
O          -1.84041671309429    1.91464118017628   -0.54482874877460
H          -0.94772865416353    2.24285415998335   -0.71014979987331
H          -1.82981485159583    0.98039391667943   -0.93416509275366
O          -1.63252222978490    1.47976300537284    1.90585239749044
H          -1.81473345957025    1.71467805979749    0.87972651605377
H          -1.88190078802870    0.50296198656008    2.03493932687735
H          -0.57344718103371    1.44643581793562    2.00043051200574
O           1.51469933956786   -0.19628770118295   -2.39340274100510
H           1.90030642733685   -0.96106093979069   -1.88201139833503
H           1.09743214608409    0.76500475379902   -1.17495633011021
H           2.24853121602752    0.19159421537997   -2.87449510884618
N          -1.43914131753139   -0.52682264735197   -1.40870334821853
H          -0.78382677399156   -0.80625942334136   -0.67922427420778
H          -0.92205769926807   -0.52153814536434   -2.27976457330705
H          -2.16041197608831   -1.23325862295110   -1.47134258542412
