    26
        -50.46460231  Gyration_radius:  2.41118947222 Dipole_moment: 2.665
 S          -0.85397830446128    0.73356005058148   -0.82631879001525
O           0.60133827451474    0.86498572135526   -0.68001686193934
O          -1.34216731700197    1.87973524669649   -1.74134462375762
O          -1.17029921173032   -0.54141371484442   -1.48353670102827
O          -1.52654791288168    0.86533146233384    0.45076633461970
O           1.04410405319381   -0.35400192307972    2.84284574052256
H           1.50815215418578   -0.27313739292936    3.67680816245992
O           1.68630654414745   -1.30458537324040    0.36446186845516
H           1.66390715700169   -1.07001952345398    1.31162946787962
H           1.42734763590302   -0.47890847127588   -0.10730956264086
O          -0.53599088752460   -2.41892222250189    0.02863161318620
H          -0.87998406136149   -1.73763282510773   -0.68260574400434
H           0.46667933003878   -2.12684649612341    0.14295415285149
O           0.59490800430664    1.97515407968527    1.73385817145947
H           0.91555436974880    0.57432308718874    2.49720199654283
H           0.81462578306963    1.72319986025773    0.81514754902969
H          -0.36987596357451    2.01496176516117    1.71591236578538
O          -1.42226103657981   -1.23464057720751    2.04794728283459
H          -0.98949296249368   -2.08007717100734    0.92071007369864
H          -0.60627942789488   -1.01092955139334    2.53455226926313
H          -1.65156085438062   -0.42034497736894    1.54484455451082
N           0.19905924489384    0.87422599286647   -3.56761988004298
H          -0.20326183960382   -0.03260549517486   -3.35607051157490
H          -0.83913142170025    1.70062907632173   -2.58617762540081
H           1.06063265687700    0.95147237059463   -3.04082434449268
H           0.40821599329476    0.92648699167329   -4.55644697820292
