    26
        -50.46223570  Gyration_radius:  2.40047856629 Dipole_moment: 9.371
 S           1.05255948124562   -0.09272886544524   -1.52631971194885
O           1.18612453388605   -0.57016049813110   -2.86583796421804
O           2.22004442127655    0.54605679929558   -0.93661993844468
O          -0.11561410505034    0.82117116007405   -1.38325346614238
O           0.72955405449071   -1.34983220290485   -0.64428627795337
O          -1.72676775082158   -0.26718445808244    1.68266468403169
H          -2.48396259565768   -0.56882964102020    2.18569485626355
O           2.09379565597748    1.52093096795665    1.40766975431223
H           2.18947977287079    1.15144354604258    0.47115963956636
H           2.95469814150282    1.87736184340420    1.63008838896589
O          -0.88157909543747   -2.29866724338537   -2.61896331638933
H          -0.19178424758884   -1.64965585878983   -2.85558386815564
H          -0.40566620604120   -3.01327011142932   -2.19057665223174
O          -2.18263171545334   -0.72523694313520   -0.82230993625122
H          -1.55389420136273   -0.05951833978683   -1.16316821565548
H          -1.94505130864225   -1.50867629712371   -1.35486587152632
H          -1.90256447328695   -0.55088535307781    0.73053659330527
O           0.94727335391822   -0.92510392229276    1.91580256612133
H           0.91109772613015   -1.21129813685861    0.32208211005902
H           1.41585909174330   -0.07625292860718    1.96856757013245
H          -0.00135857922849   -0.75082310278435    2.03354648599494
N          -0.47586571243462    1.97316745770138    0.83296338314482
H          -1.05967411611065    1.27565533532797    1.33567417249440
H          -0.30750790259320    1.53528844465468   -0.17746271390638
H          -0.93478041753217    2.87419258862750    0.76777962955817
H           0.46821619420160    2.04285574977048    1.25501808887100
