    26
        -50.45730776  Gyration_radius:  2.54961078537 Dipole_moment: 5.134
 S          -0.87431250901486    0.62391100000903   -0.18106011739476
O          -1.19927809312315    0.73784393235587    1.31423592262456
O          -1.26552786013987    1.85689491634686   -0.82035501692153
O           0.57949548836475    0.38809067743583   -0.30747682968790
O          -1.58630157207629   -0.53512327017483   -0.74622879392310
O           2.14159913726542   -0.20427048226285    3.09372364350365
H           2.22253732684563    0.06980205754948    4.00855605592169
O          -0.64299443003724    1.80762402348338   -3.36045076227452
H          -1.44377677193941    2.04574284558918   -3.83127266556999
H          -0.84489867284046    1.96109918803146   -2.40188596818951
O          -0.52837242705029   -2.75277852617031    0.17890754530679
H          -1.23787649027943   -3.36225505828023    0.39122553143440
H          -0.96330979674875   -1.94185262310484   -0.17141005847939
O           1.41682719673008    1.95739881794969    1.67015054165022
H           1.24978969139879    1.44476337444893    0.85523346837743
H           0.54654829449004    2.24011281344527    1.96374605812837
H           2.01606954148862    0.61835464405597    2.56819062470122
O          -0.20727318553586   -1.28123990413481    2.43101125451919
H          -0.11446082763835   -1.91352736541070    1.68992121254428
H           0.70346950722719   -0.99422327634564    2.67978691786110
H          -0.82947225484507   -0.10056228913554    1.81328149814207
N           0.19709149993768   -0.56841992368437   -2.62071961587115
H           0.69263328776944   -1.29044638330389   -3.13239641481241
H          -0.69232133438424   -0.88357307663758   -2.16791386661478
H           0.69830279257938   -0.22011909005191   -1.73840345362105
H          -0.03418754843649    0.29675296799383   -3.17839671134400
