    26
        -50.45730771  Gyration_radius:  2.54977213526 Dipole_moment: 5.133
 S          -0.73020235410933    0.36909599356993   -0.71959362798352
O          -2.13082965867643    0.27412708659084   -1.05302774346394
O          -0.39263813906745   -0.48266970068571    0.44045552348818
O           0.08147913122312   -0.13602869437456   -1.91992718651958
O          -0.33357235624653    1.75418765913674   -0.41295059712358
O           2.47682741909161   -2.81230751234271   -0.39694786551182
H           2.86573342789055   -3.42987288280761   -1.01823263558029
O          -3.60689660838724    1.00426814862092    0.97927093312410
H          -3.14633338328995    0.63240297528715    0.18378733824925
H          -4.21657677538910    1.66097453964413    0.63751053386403
O           2.10092690367472    1.77510838914957    0.57015653726476
H           1.19516912469727    1.80679621949331    0.18544286702922
H           2.57785841085285    2.51216868405998    0.18385846115918
O           2.47769295823620   -0.26138015781497   -1.17704701736106
H           2.57056206217142   -1.17664390029134   -0.82007571585698
H           1.09158084070159   -0.17408266786558   -1.66216765684538
H           2.49814508210343    0.34685103308312   -0.41078994768625
O          -0.17777554093698   -2.81586212575239   -0.81871753282634
H          -0.33785522305328   -2.05325537351674   -0.22911123198524
H          -0.34799733622655   -2.48098235645522   -1.70322902763322
H           1.50179917116507   -2.92785765569983   -0.46495560415460
N          -1.20660753733238    1.34829752176029    1.98874353934529
H          -0.82794975159722    1.94648501939743    1.21784372383313
H          -2.25162458143891    1.29989790054231    1.85259966479978
H          -0.82497042000407    0.40561713939203    1.64703233984231
H          -0.90594487606794    1.61466472796556    2.92007191852491
