    26
        -50.45730775  Gyration_radius:  2.54973297214 Dipole_moment: 5.134
 S           0.23163145618221    1.04270722894984   -0.21451433082303
O          -1.05335342291424    1.45122390958067    0.37857831296900
O           0.05340273346653    0.85248342189189   -1.72679654981149
O           1.25812776840834    2.03484010868150   -0.00494271173630
O           0.61847727380627   -0.26350572986896    0.35935111938438
O           0.36976315594212   -3.00056484024238   -2.24885792021423
H           0.55909210779752   -3.28896675447312   -3.14304854109732
O           1.72083130505434    2.34730392974849    2.55048093477165
H           1.65840868120550    3.29012567849686    2.71460171557811
H           1.68260930567448    2.24784397868236    1.56464532667687
O          -2.73452038860553   -0.56452872841473    0.31058030212473
H          -2.13782810032806    0.21832761230415    0.33330191490262
H          -3.59677320621754   -0.23204921905200    0.05372405206246
O           2.18488629231445   -1.12345211791238   -1.61089755609485
H           2.06075137773302   -0.36693194970293   -2.19035728976906
H           1.73321157578224   -0.87704616040654   -0.78018108900193
H           1.11957057896692   -2.42277221306851   -1.97947323012167
O          -1.49287011960772   -1.10269014342686   -2.03707136652619
H          -0.60899290536168    0.06556213011027   -1.90015013645480
H          -0.88848321155679   -1.88143556161304   -2.08194905682079
H          -1.95578469160003   -1.15049509801036   -1.17628921480511
N          -0.17309273926419    0.52913664589434    2.63029789397912
H          -0.57743349238402    0.02031050047283    3.40898653247150
H          -0.86505228954411    1.03842605235902    2.03254906325552
H           0.57578014298015    1.22495561445535    2.89111051800062
H           0.25764081206504   -0.08880829543415    1.86632133710987
