    26
        -50.45730774  Gyration_radius:  2.54976463991 Dipole_moment: 5.134
 S          -0.05665028821523    0.39040695272233   -1.01539134895697
O          -0.52504431822398    1.77265810052093   -0.54126426673032
O           1.41370984231539    0.37909565748393   -1.10273222247992
O          -0.47328432551445   -0.59779187183205    0.00196862006181
O          -0.67132786444026    0.12234439235105   -2.29298449018173
O          -1.87313467798822    1.14132592576023    3.06440556002689
H          -2.45336491157513    1.81627280663841    3.41987375387781
O           2.43979250154195    0.46605025629957    1.31253944074034
H           2.09020967002079    0.45393380760351    0.39214299217152
H           3.18634738804598    1.06818554333234    1.30347328035075
O          -0.02682863041220   -2.26879160819116   -3.13486297759397
H           0.30280497404990   -2.15214827634139   -4.02785960006353
H          -0.39600680633082   -1.38672302870572   -2.87246890628688
O          -2.82912931084798    0.45462685006285    0.64789516268507
H          -2.30994728472031    0.80092799884483    2.25082503719692
H          -2.77292594600641    1.21835428686470    0.06735026941780
H          -2.04857735787536   -0.08779696216526    0.42139956396132
O           0.30059670362119    2.05188677390985    1.81450457868159
H          -0.43201446246655    1.69254628743262    2.36936015189801
H           1.03668451030346    1.40896226740992    1.86305816614263
H          -0.17559637706335    1.94222257668458    0.42686280650184
N           1.29104890560123   -2.19446056588633   -0.86412399791169
H           0.47176864121960   -1.80295166625048   -0.29280080968244
H           1.79252355267331   -1.29205883790718   -1.03648642086618
H           1.84028571825801   -2.90158066079824   -0.38763972221040
H           0.87806014403380   -2.49549701584126   -1.78704461074321
