    26
        -50.45730769  Gyration_radius:  2.54973626818 Dipole_moment: 5.133
 S          -0.18826651754365   -0.85827114612560    0.64315403761298
O          -1.24692060466272   -1.74936699860542    1.05188740276353
O           0.92025274847173   -1.58460384489414    0.00011983515363
O          -0.68140935782806    0.17095389770680   -0.29622651832346
O           0.33614595690047   -0.13640422462857    1.89162210054555
O           0.19503501348470    3.64352034657055    0.94204948740172
H           0.22040843181511    4.26024260200100    1.67524259889712
O           2.59609437483856    0.13212233151830   -1.06721185411764
H           3.49030856645042   -0.16456212430376   -0.88744969017330
H           2.00101307502042   -0.53896140892098   -0.66113045043400
O          -2.29081730927621   -2.94450934228460   -1.02756616016635
H          -2.28176130663681   -3.88141554697009   -0.82330902832589
H          -2.02443238687574   -2.48894854411000   -0.18812183335783
O          -1.74146217721192    1.85508844616825    1.46837567488704
H          -0.60368196497749    3.08467844496907    1.07773381095051
H          -1.49610604921385    1.27287130456519    0.72291529387170
H          -1.49708456709912    1.36071018892699    2.25536140490163
O           1.93605047677170    1.62787911324852    1.09367934615590
H           1.03043559620039    0.58778818039697    1.60572006700207
H           2.18791221993089    1.30511304557750    0.20484426761291
H           1.36778208330059    2.42349172256934    0.96015264395219
N          -0.44439828763453   -1.48675012387316   -2.19582703714185
H          -1.24141892034832   -2.15123187363354   -2.00576688104981
H          -0.22376290810859   -1.34879931885239   -3.17613789823659
H          -0.68027237442647   -0.58856777478772   -1.65881306277024
H           0.36035618860311   -1.80206733219811   -1.60529752760621
