    26
        -50.45730767  Gyration_radius:  2.54997778352 Dipole_moment: 5.133
 S           0.93504232179147   -0.50084645195813   -0.24673519479009
O           1.44824961787254   -1.77450312857070   -0.68979685527556
O           1.55517524812900   -0.18620670042863    1.12120339746308
O           1.26594357399175    0.58050724508625   -1.19068418662818
O          -0.53266094349258   -0.54046871503465   -0.07538802614096
O          -1.50689551040794    0.62185340806098    3.39811639175771
H          -1.35081913727979    0.57409766262107    4.34255773719816
O          -0.04001093321038    2.75963964859897   -0.52692216937036
H           0.48122903759634    1.96767569230372   -0.79238791801205
H           0.55240122020715    3.50845067181755   -0.61789332411665
O           0.35851419139480   -2.45988767384894   -2.96696419079717
H           1.08725411511822   -2.67522549811107   -3.55200723193324
H           0.76654999121359   -2.33563226335086   -2.07185197993962
O           0.39175537267235    1.86215254667070    1.99340440026753
H          -0.37339005857432    1.50393812100271    2.50321389588638
H           1.11950159783918    0.67955268414541    1.50678506494361
H           0.02811235751956    2.26681227923754    1.18007379408541
O          -0.63037551013793   -1.68159158200648    2.32521490867440
H           0.31933938361461   -1.74097079820051    2.45931706773038
H          -1.31448487414285   -0.27448463387913    3.04007931177473
H          -0.73232554332430   -1.36758335680592    1.40548183722195
N          -0.80679449066241   -0.14106795980879   -2.56095269710671
H          -1.53077169929425    0.34261033704426   -3.08122130561495
H          -0.50943459392551   -1.06885390697848   -2.96534708498212
H           0.06599749685157    0.41492434790200   -2.40373476686006
H          -1.04710225136267   -0.33489196551306   -1.53356086543944
