    26
        -50.46223541  Gyration_radius:  2.40038043735 Dipole_moment: 9.388
 S           1.79058327384768    0.00623795330994   -0.48878007986945
O           1.09932207670182   -1.17667761570452    0.09676295462887
O           1.54984070065628    0.02464422793838   -1.92415924279117
O           1.07156763048441    1.26715162196116    0.10763675087471
O           3.15120919907414    0.08489056552409   -0.06168479420735
O          -2.11014956303826    0.12022266726732    1.18949494018769
H          -2.78851635323427    0.26723203700683    1.84946752206228
O           2.48784950381595    0.96688416684558    2.40941645702052
H           2.36998098397038    1.89331999909269    2.18881996673080
H           2.84055071831590    0.56270678061240    1.59378486750269
O          -0.81747711509139   -0.19985913912561   -2.82270780744184
H          -0.78069737400682   -0.14612566400543   -3.77844904993558
H           0.14065919201557   -0.11166904731665   -2.51137959199209
O           0.11751436101341   -0.36673372616570    2.41167675246401
H           0.82151003502423    0.25679923072810    2.67525204426796
H          -1.24622044247369    0.03167261915833    1.70294143499866
H           0.54091809756796   -0.83616732066242    1.66671838711562
O          -1.28329427008677    1.71758771552775   -0.90913068590354
H          -1.75209902910368    1.26236842766467   -0.19003395404148
H           0.22130974422229    1.49180625804569   -0.35336119699555
H          -1.30835486638372    1.14404483364173   -1.69229418502678
N          -1.26139650053038   -1.67738919278776   -0.64158024990517
H          -1.51104036534577   -2.65899926166701   -0.61276912625553
H          -1.33218944712918   -1.28213305788272   -1.59709815556899
H          -1.81310068263733   -1.11625368697389    0.03733391571144
H          -0.19827951765046   -1.52556138203248   -0.34587789362854
