    26
        -50.46234970  Gyration_radius:  2.43310216186 Dipole_moment: 6.651
 S           1.19083552457876    0.62243144814930   -0.46300216373820
O           0.80183261704846    1.97688669460258   -0.12970766281093
O           1.98421923496090    0.49973378669954   -1.68642897830569
O           1.80074215852431   -0.08173251611864    0.65309126668171
O          -0.11855756732803   -0.16956135852999   -0.84086909175925
O          -3.16612840603997    1.16321732067861    0.92168001794258
H          -3.15473443427073    1.79117703801803    1.64661053681026
O           0.96002774770700   -2.51206009092099    0.48638556473317
H           1.37588007546817   -1.64611154738809    0.73104829853758
H           0.03995492511654   -2.41938913159472    0.75787497157761
O           0.22589274720319    1.31169183488502    2.41804110284079
H           1.06371647091478    0.88923883408408    2.62806280863952
H           0.39278881872738    1.75543890659042    1.56518904852384
O          -1.69568444892653    2.26901131787786   -1.04452063828887
H          -0.78013795605459    2.31234884060299   -0.70269031115098
H          -1.66717391253819    1.63223602762250   -1.76164039447423
H          -2.71916414834710    1.61591541156082    0.17099410903313
O          -1.26735612629654   -0.63013921535262    1.35919444888950
H          -0.73156682651731   -0.01839885454420    1.91851911025731
H          -2.11641590586863   -0.14055502865363    1.23543794902656
H          -0.63143797569961   -0.37359738983394    0.02420702136705
N           1.64833824992889   -1.99794147676393   -1.99830646454957
H           2.48816186071697   -2.50035682469227   -2.27040946897427
H           1.85402848119019   -0.90730754673262   -1.91718014509969
H           0.90638239676511   -2.13507615254844   -2.67838845203865
H           1.31555640908839   -2.30710033759653   -1.02319246361569
