    26
        -50.46234974  Gyration_radius:  2.43308720727 Dipole_moment: 6.650
 S          -0.37831737772503   -1.30126529164269    0.42895798058501
O          -0.67954834208985   -1.88527117785602    1.73640831110545
O           0.62131979262909   -2.01740377269009   -0.33572211220571
O          -1.58451911210361   -1.02641818106249   -0.33463115138535
O           0.23671297509828    0.09420198075449    0.82760234004110
O           2.78056242520930    1.31256150074126   -1.66477297473165
H           2.93332597173374    0.93077377794258   -2.53129740461311
O          -2.35928039365397    1.31681767278156    0.40730812513966
H          -1.69851998279396    1.88158590042811   -0.00905197381728
H          -2.22505497636326    0.43040866826422   -0.01556422440143
O          -0.10284408082956   -0.81275164237684   -2.63592436720016
H           0.29079841126868   -1.36435475186956   -1.93385896073894
H          -1.04181382070787   -1.01508612587533   -2.59124019633113
O           0.16446123225357    1.47348708807303   -1.28550894443953
H           0.24027873911520    0.69340812416134   -0.00532378496783
H           1.12619909181656    1.64432391432917   -1.43277823690125
H          -0.03530898091624    0.74011908111392   -1.91511387193457
O           2.92844910075502   -0.72924044362537    0.08466484004884
H           2.74025651598345   -0.36611534112217    0.95253822241272
H           2.17044091286504   -1.31302255017584   -0.11941212188142
H           2.94029821548427    0.58475369259055   -1.02211478406095
N          -1.82864386843728    0.16040628093802    2.70774753392748
H          -1.15659481121774    0.65740235190920    3.28490980990338
H          -2.05407323377835    0.73553886858215    1.82695775950581
H          -1.35431807467062   -0.77829450697401    2.34419396373177
H          -2.67426635893292   -0.04656511729966    3.23102625316088
