    26
        -50.46234976  Gyration_radius:  2.43353717526 Dipole_moment: 6.645
 S           0.24209090383288   -1.37694215727306   -0.26109435823360
O          -0.71946427643803   -0.14407634779094   -0.46159890147305
O           0.09817561196351   -1.82558075687198    1.10813371256790
O          -0.25524971918872   -2.31696290123404   -1.26621250339000
O           1.58641246450508   -0.91568191013869   -0.56692455035489
O          -1.27545667274269    1.78742110513675    2.72346944737711
H          -0.77709182253663    1.67614315102933    3.53536801866499
O           1.88849477172728   -0.02452138301650    2.01206193299902
H           2.60300414555100   -0.24737726982035    1.40843455429580
H           1.24428007651385   -0.74744050319050    1.89193354333894
O           1.28945015928660    1.10310226386519   -2.14102423309290
H           1.61177738434387    0.37780950805919   -1.54721960880311
H           0.95462832826104    1.77457966250198   -1.53596321756374
O           0.42999053336304    1.78239596444748    0.69688885245546
H          -0.23193519400711    2.00642477606772    1.39498696110963
H           1.10761128797081    1.25704721975385    1.18576558382615
H          -0.30070485438222    0.66868754780805    0.00365753957921
O          -2.13214376039765   -0.66979341767758    2.03043512652402
H          -1.67329673854955    0.90782240035454    2.53316750901207
H          -2.60505578319366   -0.57544867468199    1.20103862025067
H          -1.32933804632144   -1.18408439691763    1.81156279740552
N          -0.36058871436198   -0.65714934415236   -3.18529110547145
H          -0.32405428080503   -1.44325095204189   -2.39852907020585
H           0.26437670468847    0.14312213602294   -2.82991100262212
H          -0.01581644598598   -1.02041756179046   -4.06897730023902
H          -1.32009606312105   -0.33582813845239   -3.27415830794612
