    26
        -50.46234976  Gyration_radius:  2.43341773943 Dipole_moment: 6.647
 S          -0.31811419571867   -0.90347183540930   -1.05133015307568
O          -1.05423238320097    0.23119122894930   -1.58446053089553
O           1.02420438417546   -1.00509620807323   -1.58477901702064
O          -0.19625050601053   -0.67775301152641    0.50398892704961
O          -1.09658309022420   -2.14066361672894   -1.11889618610873
O           2.98155198282132    1.10333208732127    1.45936478025017
H           3.58203712796977    1.53352234094437    0.84759376133567
O          -2.45347666368728    1.13934817721731    0.37991334406223
H          -1.77559885157348    1.54995989520017    0.92846644310825
H          -1.99558543646013    0.95922443058247   -0.48055770638744
O           1.27396561069016    1.67120696924265   -1.78820214382763
H           0.46964902482728    1.83252716664310   -2.28981524891119
H           1.37780326015377    0.70136938104354   -1.81482371144295
O           2.62559115596658   -1.39635959442271    0.52312290921672
H           2.93909337209334    0.16289868495690    1.17302286331851
H           1.99820151659617   -1.82497028559607    1.10893103202717
H           2.15662401190997   -1.30084245941087   -0.33003653798249
O           0.50419304779359    1.73373290437629    0.76633248001795
H           0.09884635253797    0.29134491582083    0.66552291272737
H           1.38081315193086    1.62954533990462    1.20947793638663
H           0.74419750335670    1.90458767082766   -0.17565065775278
N          -2.88231225164544   -1.44880380210872    0.54883564527641
H          -2.75869144668420   -0.38075779311218    0.58624490721233
H          -3.82812098163622   -1.69411161197536    0.27128043144267
H          -2.14733307650529   -1.81347080665415   -0.20295263847093
H          -2.65047259946010   -1.85749016801359    1.44940618842469
