    26
        -50.46223571  Gyration_radius:  2.40046451404 Dipole_moment: 9.373
 S           1.00230020612255   -0.28628478063804   -1.53600376963591
O           0.22473207216170    0.95821635163563   -1.27730094853414
O           2.20836563689508   -0.01398300463352   -2.25100139706206
O           1.44035190261662   -0.82356798462975   -0.12814433900598
O           0.11002411736822   -1.28406332971421   -2.10784379829095
O          -0.80370306396884    0.65995151011612    2.19143706084004
H          -0.86561934618777    0.98136026376373    3.09157109012528
O           3.44976740358120    1.00770666819770   -0.07404020674048
H           3.72888855294368    0.17838937407871    0.31957676766068
H           3.07577236372122    0.75612367310228   -0.93996782010877
O          -2.11293709713209   -1.79974399928117   -0.98774811767633
H          -2.54879354849597   -2.48812615538358   -1.49156572936463
H          -1.24120288017991   -1.62494736284039   -1.46964484729735
O           1.12790207384973    1.91477852714994    1.01351131538742
H           0.80710665206870    1.76271192484977    0.10317996658105
H           0.01613149169127    1.10012624379754    1.80158546263808
H           2.06699134924169    1.65843615996968    0.93479948796018
O          -0.49491865375687   -1.91332360424084    1.23175351889212
H          -1.20101324118297   -2.02785705230928    0.57507662637945
H           0.72474476450632   -1.32603118267903    0.34245085512131
H          -0.68359825591257   -1.10424555787602    1.73566164704610
N          -2.05050590367837    0.75377739998125   -0.20485394103751
H          -1.08163112823318    0.87456352857856   -0.74104924677073
H          -2.38948970987063   -0.18801459634122   -0.47390706543627
H          -1.80651768543300    0.78919186855824    0.80474790434259
H          -2.70314806273937    1.48485512678929   -0.46228049601422
