    26
        -50.46234977  Gyration_radius:  2.43319785175 Dipole_moment: 6.649
 S          -1.30692924477579    0.19574278589784   -0.52379092680886
O          -1.46495420757054   -1.21741763608206   -0.22103768251798
O          -1.82254759275887    0.53189298708485   -1.85132375574977
O          -1.77758710738739    1.05597083843736    0.54174714078609
O           0.23816352600272    0.45472176271026   -0.69741728500504
O           1.88646543535517    1.54561286007967    2.50634439781956
H           1.48318380096959    1.51449418134288    3.37602431503818
O          -1.06115836231429   -0.71125207972090    2.44683937141365
H          -1.40573152307480    0.03836144369159    1.92578617581993
H          -1.51827962550728   -1.47561462614306    2.08436663076410
O           0.61885386518951   -2.37618290358412   -1.19871285611359
H          -0.22878280274258   -2.12652420090375   -0.74949017552261
H           1.30586303188702   -2.09212645640146   -0.58534945561694
O           0.15199181212641    2.86895398789803    0.92784981591797
H          -0.64133054162076    2.30010149400763    0.86411329655633
H           1.30058238716909    2.11925133821233    1.96234799438069
H           0.52845622881195    2.87617550285849    0.04540733812610
O           1.32618109013732   -0.71990340171348    1.25432386311478
H           0.50864405504659   -0.88328409312389    1.78263476537396
H           0.72909136017134    0.00363260472765    0.08256783899667
H           1.75031329335661    0.04075353746330    1.72048157531437
N          -0.10761585623031   -0.79719900402427   -3.17101179793037
H           0.29030208627214   -1.46171061940652   -2.42436469971985
H           0.61481263492363   -0.15683743005726   -3.48697022780573
H          -0.49624806618768   -1.31973925462155   -3.95056074335381
H          -0.90173969724959   -0.20787360864214   -2.66080491327745
