    26
        -50.46234975  Gyration_radius:  2.4331508495 Dipole_moment: 6.649
 S           0.52035573138757    1.03888765292380   -0.82022532178040
O           0.09044894107034    1.63912906954918   -2.08353799265749
O           1.62770169439587    0.11536547834652   -1.00620277503345
O           0.75122066187988    1.98628091651993    0.25023459629431
O          -0.73526328062401    0.17121555897354   -0.42581339548767
O          -1.13864650439652   -0.16972518382604    3.30167795583396
H          -0.48266516555621    0.08081633419214    3.95505473302385
O           2.17791555104647    0.20254671629422    1.68188554708449
H           2.80072013090291   -0.04111232050115    0.99102092763785
H           1.72116448744249    0.98613314405255    1.32204972102116
O           0.55394792391389   -2.15327299535654   -1.58850020253189
H           0.18398293806534   -2.41774997320610   -0.73870398609754
H           1.14992247022388   -1.39185093278970   -1.36970808612557
O          -1.48174975156930    1.98636196041724    1.72494800835685
H          -1.33738475948454    0.65093496363169    2.79646496079660
H          -0.63264396583004    2.11529235149289    1.25667008620009
H          -2.10946426209150    1.73524676008573    1.04419860726004
O           0.10044926764675   -1.43590013380691    1.33283257234971
H          -0.44978435828148   -0.49591561211641    0.29939345991642
H           0.96599773327487   -0.99669060835729    1.51186219245911
H          -0.45272294647661   -1.17288093893614    2.10776249577773
N          -0.78135608647413   -0.50129625995980   -3.13659101450303
H          -0.31514579699175   -1.25970158711969   -2.53223179019001
H          -0.40420459293782    0.47060967273191   -2.74825287075005
H          -0.53378239029750   -0.61498903480678   -4.11512755930115
H          -1.78901368028708   -0.52773498838711   -3.01116085959974
