    26
        -50.46234979  Gyration_radius:  2.43327366407 Dipole_moment: 6.645
 S          -0.91811300746035   -0.97081267095035   -0.48627651970529
O          -0.97305167273985   -1.79110960258985   -1.69677203430216
O          -1.03401763912260   -1.71332672393616    0.75148551854141
O           0.54331702893759   -0.38405687569545   -0.55431494419056
O          -1.82885687040979    0.16030509563543   -0.55447960072477
O           1.99952933926509    0.25989058412763    2.85722170138195
H           1.50949132747482    0.24375140106643    3.68156152849188
O          -1.63918705504493    0.50188553522560    2.16302827433107
H          -1.46118973997961   -0.40168312938356    1.84059254153556
H          -2.36395204674385    0.80747195807441    1.61000711300330
O          -0.52363138996440    2.03465978671449   -1.74765759690672
H           0.10662738360992    2.29683186220912   -1.06725182941044
H          -1.17729762205892    1.46371673556450   -1.26866714350619
O           0.54979179256825    1.55686065815336    1.05988069195863
H           1.22822067246156    1.25792038031397    1.71270130526315
H           0.60263270190023    0.40685711157680    0.09668118388807
H          -0.30452983669215    1.35579671602499    1.51142221584137
O           1.46824888542692   -2.07626689647123    1.62758471858699
H           1.88716705556300   -0.63495877580811    2.46379249349161
H           0.51611005639105   -2.05254949016097    1.40437886393275
H           1.92538421313685   -2.05606074430576    0.78429693969482
N          -0.01148284122691   -0.04579582984195   -3.27099790502278
H          -0.13689938910892    0.86273188143579   -2.70868253417535
H          -0.48647100697788    0.01417482765593   -4.16683196374914
H           0.97703208911929   -0.24326451459910   -3.39627136880896
H          -0.45487240838513   -0.85296930003283   -2.64643164942948
