    26
        -50.45760699  Gyration_radius:  2.49468972848 Dipole_moment: 2.739
 S          -0.33392752853926   -0.02714751327949   -1.38275941493325
O          -0.65921829385419    0.22296210121456   -2.87663939860398
O           1.04536338690689   -0.49585254078088   -1.32424453783842
O          -0.47166849701273    1.26371524879693   -0.68590941966004
O          -1.26851748394242   -0.99788151020059   -0.84695896595228
O           0.07242607847143    0.66039093897346    2.94253842019547
H          -0.75500677401006    1.03220645055425    3.25161355878910
O           2.99440263541487    0.38490068066984    0.22789157153648
H           3.05747132409331   -0.41884022057087    0.75757913904934
H           2.44623551653177    0.12724761592862   -0.54429899223751
O           1.81902193897461   -2.29972033018865    0.46122026703419
H           1.86709604326016   -3.18976389955619    0.10995027430434
H           1.50330255148778   -1.73151734512938   -0.27529490985088
O           1.15566182610689    1.92763733058754    1.04845890406455
H           1.99758116576954    1.38924099961168    0.79273149856551
H           0.46214688812327    1.71315476402723    0.27026435170626
H           0.74678842342813    1.46861091520669    1.88546595158737
O          -0.51025421035682   -1.49911956078388    1.65241175820058
H           0.33873677103396   -1.93060966299066    1.44979430179431
H          -0.16105892301515   -0.21026355779211    2.49546213253075
H          -0.91434452028506   -1.33009401150535    0.77542417371397
N          -3.04652522012728    0.84108008547106   -2.05132368262383
H          -4.00941943784284    0.84861076950522   -2.36290755015248
H          -2.86695618907843    1.68295603177267   -1.51899004422650
H          -2.90060300600432    0.05132988562004   -1.42879947226203
H          -1.60873447548039    0.51676630485750   -2.82267988472857
