    26
        -50.46972945  Gyration_radius:  2.43069054131 Dipole_moment: 5.125
 S          -0.44657348927204    1.50340972918836   -0.08175416451146
O          -0.93407328245154   -0.00521558145350   -0.17011458966337
O          -1.23135299214886    2.18918928036566   -1.07436249967361
O          -0.63144724270774    1.93498152116455    1.28328369102800
O           0.98491510005749    1.44309761091545   -0.44084399418170
O           1.93514845401707    0.83651990751355    1.94445064802897
H           1.73785842592685    1.15874796615176    1.04078808288128
H           1.41395892099688    1.40270636567958    2.52107811091614
O           0.74284501277932   -2.61866966856925   -0.69154942381257
H          -0.10417324606272   -3.06288428434066   -0.76412391372650
H           0.77925896256897   -2.26701017320560    0.21603720513407
O          -1.38270928212820    0.13697104868809    3.07746338851335
H          -1.13544301569864    0.86842906658327    2.46919879259618
H          -2.29962810567865    0.28583415075777    3.30933964398026
O          -1.42451435291978    0.44742578725704   -2.98241911228681
H          -2.16003286177394   -0.08690598161198   -2.67588620259669
H          -1.38835714274892    1.21016006166524   -2.34635712290726
H           0.02212937409877   -0.17628613398197   -2.66672205396792
O           0.40298956391285   -1.28021627790686    1.67487399122739
H           1.11816786414975   -0.61137651592517    1.83927496891392
H          -0.25051082710319   -1.10042932808536    2.37404135458929
H          -0.45618538825749   -0.50572037735776    0.54547655329522
N           0.96649788159981   -0.39496291690038   -2.23610479694427
H           1.70515281727072   -0.40090654094203   -2.93139011386889
H           0.92580686891012   -1.29970665146784   -1.71195562218200
H           1.11027196266225    0.39281792581932   -1.52172280078010
