    26
        -50.45760698  Gyration_radius:  2.4947227845 Dipole_moment: 2.742
 S           0.82652620785608   -0.27627483454302   -1.12452012136521
O           1.62420761120943   -0.67372831786875    0.02924537139909
O           1.56201845105921   -0.80491083473748   -2.38131086564882
O          -0.49505421585674   -0.92666265161209   -1.08858785633180
O           0.68352723717616    1.16323458440006   -1.22547785371248
O          -2.38335618121676    0.48972948541811    1.78398465912985
H          -3.15231417897588    0.77950986595189    1.29085329327578
O           1.82018437115995    0.87552964029074    2.17440612073986
H           2.62397289248108    1.39632211132257    2.19838821144440
H           1.84842373654636    0.36705620102310    1.33437762097608
O           0.80369809289560   -1.88241158042707    2.23137304506303
H           0.96000117403482   -1.12773309247877    2.81151885181667
H           1.26953031564010   -1.65222654223942    1.39878932273977
O          -0.41263979482253    1.98944377262055    1.05258578807553
H          -1.63822243086778    1.11918157940282    1.53705326933974
H           0.32880362001122    1.76921200611564    1.64406346309007
H          -0.07915542281933    1.78188745200880    0.15447678304099
O          -1.43512394621289   -1.72996090271958    1.04864138953711
H          -1.04972943182294   -1.45272017193293    0.09610048426142
H          -0.59472940131051   -1.88434461772164    1.62659289774710
H          -1.88804438978023   -0.86406380312540    1.40014702065313
N          -0.33092729720322    0.35334354675616   -3.73691897219051
H           0.96651182152198   -0.47626277358321   -3.10810824730802
H          -0.50519958251912    0.77799352267952   -4.63893350590935
H          -1.13947243588353   -0.19368240791601   -3.46971215677271
H          -0.21343681230281    1.08253876291581   -3.03902803310887
