    26
        -50.45760676  Gyration_radius:  2.4950101452 Dipole_moment: 2.753
 S           0.15749867371242   -0.60158511320172   -1.27903477518181
O           1.28620358138639   -1.09197032231105   -0.49726366950306
O           0.42413076414989   -1.00276585056697   -2.75135631197806
O          -1.10205376229320   -1.17681262571053   -0.84814821269240
O           0.09686584012828    0.86982656958010   -1.23371243391523
O          -0.77109803314043    1.86891971585880    2.24127412804192
H          -1.54271010858337    2.39519347160414    2.02668080965921
O           2.74380327943420    0.23922997744398    1.25936777335465
H           2.44459811927508   -0.29024093778282    0.48905924745680
H           2.43468551166077   -0.25623100849510    2.02711659487487
O           0.96386328086749   -1.98940912155928    1.97881712315466
H           1.05876556523068   -1.77702198668063    1.02439618865947
H           0.91622518887151   -2.94456620976301    2.03624732167507
O           1.15084526154798    2.10841148433954    0.62403004313007
H           0.73069077881518    1.62488341670661   -0.22599731890496
H           0.38859451804303    2.08863713147687    1.32906813376964
H           1.87905282542354    1.45570314174717    0.95214739632378
O          -1.37336831248898   -0.58984883962896    1.73184038177681
H          -1.40606334546126   -0.79173965631002    0.77319071786988
H          -0.63204427722358   -1.12467775538764    2.06740996575479
H          -1.03726060357332    0.90929729314794    2.09747989508510
N          -1.89057227956086    0.06744806708003   -3.26068900938586
H          -1.71990734525383    1.04580018089269   -3.06576877752032
H          -0.39231343260126   -0.65149524718084   -3.19985343321048
H          -2.14738005698530   -0.37710754038346   -2.38371277888946
H          -2.66105164117794   -0.00787822499213   -3.91258900943011
