    26
        -50.45760695  Gyration_radius:  2.49454846282 Dipole_moment: 2.736
 S          -0.47019201930303    0.91548215060641   -0.98308848686237
O          -1.22554443171918    1.77216822830481   -2.02979992151187
O           0.34271343994413    1.78337122617822   -0.15315174835282
O          -1.48734992556239    0.22565579913264   -0.17041293092618
O           0.33130782081820   -0.04900432046165   -1.72667102751479
O           0.28354968972458   -1.65597297926907    2.50471401491637
H          -0.17846384463194   -1.26914294156858    3.24990059226142
O           2.71802601462410   -0.82252692852985   -0.86344818446502
H           1.89611575604096   -0.44087488206095   -1.24263209631556
H           3.44517592186644   -0.36851318099549   -1.29120424592713
O           0.47880498302921   -2.66197340274590   -1.35970667314503
H           1.39165479113515   -2.65748239235854   -1.04788342063116
H           0.34697709999066   -1.76910783671691   -1.74514829691060
O           1.73987560662889    0.21007054746705    1.47340689983650
H           1.22081768427229    0.87613169508566    0.97550650908056
H           0.89284649836126   -0.93832720151504    2.14936951562710
H           2.29353991991667   -0.22079686070925    0.79817864118163
O          -1.16730222977502   -2.13044986062248    0.49560133778195
H          -0.53253748317852   -2.49154652700599   -0.23295671642734
H          -0.60120597366869   -2.01442274842913    1.35851428911141
H          -1.37816207007626   -1.13389057975767    0.18757159129148
N          -2.16220154136345    3.08435681771749    0.01053331117881
H          -1.21332396629224    2.97692135433609    0.35781563619571
H          -2.73046303925913    2.37790651418677    0.46043592205781
H          -2.51116470117286    3.99911665218888    0.26697628141562
H          -1.72349402029976    2.40285164763592   -1.44242080294871
