    26
        -50.45800464  Gyration_radius:  2.39571176982 Dipole_moment: 3.162
 S          -1.19362193517565   -1.01677553678104    0.11922154722562
O           0.14026201649700   -1.08412118175840   -0.49396684206904
O          -1.46224967864836    0.51523579239330    0.38711660700211
O          -2.22432168236238   -1.51734833408752   -0.74674059635135
O          -1.17470733307284   -1.60089717035379    1.45611361220942
O           2.16595917510223   -1.68437764922018    1.02579647507496
H           2.22657790100153   -2.63855199001032    1.09856917285980
H           1.45053171988701   -1.50089387817310    0.36413648072829
O          -1.04387239758401   -0.87353682078575   -2.99066001894281
H          -1.62484897107071   -1.23720197335970   -2.28531759154943
H          -0.16356599872324   -1.16477232015016   -2.73484737285451
O           0.41077171302714    1.76878380649775    2.01324631568723
H          -0.52178603109299    1.74571750212929    1.76476799637939
H           0.89710381373890    1.76388348646955    1.12563392308948
O          -1.30935176556061    1.53083304666721   -2.00058867839178
H          -1.41673193170806    0.95214056769984   -0.50509234379978
H          -1.16413935762792    0.68050976054210   -2.50163272141124
H          -2.16622949247551    1.85662501526333   -2.28353005480707
O           0.65468195032189   -0.59741665366830    2.77512944371269
H           0.60172241430314    0.44305271560475    2.53944365200614
H          -0.19478449474246   -1.03337556222707    2.30571157254201
H           1.41610481969566   -0.98731597744635    2.22632269236556
N           1.38388117095810    1.50130717270372   -0.40546837836199
H           1.05086026791251    0.55080565088874   -0.56465983185947
H           2.37014731739170    1.53072211278070   -0.62823265426062
H           0.89160677001620    2.09696841837771   -1.06047240621674
