    26
        -50.45760697  Gyration_radius:  2.4945592922 Dipole_moment: 2.738
 S          -0.09503914850900   -0.38373187964295   -1.36729760824100
O           0.01360463763302   -0.61987206354953   -2.89454632450713
O           0.57740391447419    0.89454585596550   -1.07627472680403
O          -1.49445904489108   -0.32038417525859   -0.99262090492382
O           0.60207290816195   -1.48806041859219   -0.71913071453107
O           0.13213539207653    1.61152939556731    2.54624119179179
H          -0.26779732474172    2.47706116083916    2.44938631220233
O           2.43367901520820   -1.35844279441622    1.18141454121689
H           1.95296266923092   -1.53698470870846    0.34465015140065
H           1.88083859382825   -1.75370681734531    1.86601126219248
O          -0.24663429813762   -2.49861526257161    1.58253471219122
H          -0.01081534432159   -2.20866574711821    0.67404741964300
H          -0.76030377140005   -3.30100972252445    1.48166536034462
O           2.00448959349774    1.12844293956807    0.92524161710578
H           1.29549513369745    1.37344580088811    1.64347393110164
H           2.29826533994902    0.15763614208770    1.11325444123063
H           1.44643815845039    1.06188500364214    0.02155766339264
O          -1.57584128676212   -0.10882872057712    1.65736732542059
H          -1.21223257116026   -0.98636875523997    1.87156244044446
H          -0.56460256964592    0.94661166366008    2.25476209188961
H          -1.65379576905387   -0.10835816786974    0.68021081245495
N          -1.43220227429174    1.52862052945979   -3.13062837955905
H          -2.09642352635574    1.96722671767505   -3.75572821140842
H          -0.49612308684359    0.15829421771691   -3.24858665500096
H          -0.80295885667391    2.23532598046238   -2.77140814740373
H          -1.92815648345517    1.13240381586983   -2.33715963166487
