    26
        -50.46223536  Gyration_radius:  2.40041797821 Dipole_moment: 9.387
 S           0.66624686873347   -1.61286844959220   -0.63307363684461
O           0.37026819008565   -1.35697777642879    0.88671161848693
O          -0.29928645972105   -0.76582248650961   -1.38829764629967
O           2.01377936912922   -1.12460511507228   -0.88694446669400
O           0.43133465613973   -3.00403897199522   -0.85528760388682
O          -1.33483869906624    1.75513652695311    1.00965208228288
H          -1.99817595835703    2.24082232060356    1.50107115250164
O           2.54614046735336    1.34642638850410   -0.61693998809583
H           2.37993223648185    0.35664109564593   -0.74104969782939
H           3.47676605777956    1.47395497162341   -0.80492935014812
O          -1.75247956959412   -3.05028680120710    0.74270868738372
H          -1.04863205301266   -3.13390402184674    0.07141423519314
H          -1.29605136413231   -3.13041362186581    1.58301969411811
O           1.20481012048457    0.95407079014638    1.75019379985507
H           1.78877394154402    1.26648731166835    1.04010051047346
H           0.33986931679199    1.38174193355576    1.63596125203878
H           0.77815725308708   -0.52080147556876    1.23359547029292
O          -2.39002532118991   -0.46321577488036    0.19766102482458
H          -1.75377339788053    0.86227167959169    0.79707278758174
H          -1.76343573268646   -0.61007499368464   -0.53751583776676
H          -2.38930959086950   -1.33761559843503    0.63274533391318
N           0.00385350585268    1.73903043082345   -1.33815207426198
H          -0.11808641390468    0.63632230534986   -1.43763085927877
H          -0.32564016785966    2.21830474146553   -2.16786692922646
H          -0.54797002816578    1.99671944737940   -0.49601017282727
H           1.01777276297806    1.88269516377773   -1.17820936578613
