    26
        -50.45760696  Gyration_radius:  2.49455312334 Dipole_moment: 2.737
 S           0.24175938820270   -0.28995281753358   -1.37243805538423
O           0.42958832869808   -0.86819313631346   -2.79736907683090
O           1.56717118274787   -0.21465572108887   -0.76971878508213
O          -0.39560013609401    1.00928402490923   -1.46488944370900
O          -0.61156105262840   -1.23371946449792   -0.62945739949365
O          -1.27912687382176    0.23725873398356    2.72133288386738
H          -2.23605744528447    0.20966675415572    2.67646183547055
O           2.22510988849113    1.75456858225745    0.88201430732240
H           2.02147126942136    1.10233943478909    0.17620166442036
H           2.72557168860467    2.45510699798399    0.46172176462391
O           2.32153658613216   -1.09360163026978    1.60558259757568
H           2.47454210499805   -0.21822798411932    1.98088215380108
H           2.23818221117669   -0.93553296921154    0.64059613745956
O          -0.49688574687169    1.99780094682867    1.00222686677053
H           0.46090744629275    2.10482258139879    1.14143644477969
H          -0.57656527625758    1.69473472701863    0.07341725078051
H          -0.98998602251946    0.96830730432669    2.09323796055314
O          -0.11945850617394   -1.77230907116859    1.72956879220201
H          -0.60965767734910   -0.99552006487269    2.21417229051887
H          -0.34012034853739   -1.61681721347729    0.70021356528531
H           0.89148052377190   -1.58087289332599    1.80335016375663
N          -2.13912124506799   -0.55256053734055   -3.05067665137923
H          -1.95593914392068    0.31627381535810   -2.55659811688830
H          -2.49134808833526   -1.21694544274532   -2.37321314222814
H          -2.84844593278802   -0.39426142470934   -3.75503163426913
H          -0.50744711286836   -0.86699353228153   -3.13302434393478
