    26
        -50.45491409  Gyration_radius:  2.43192402078 Dipole_moment: 6.958
 S           1.04495324720291   -0.21245238608649   -1.62214880889371
O          -0.07078862079261   -1.20774359072113   -1.60033689415974
O           2.00639041069736   -0.48351557519805   -2.63066341096961
O           0.31366725329772    1.14477753118795   -1.94393845356186
O           1.58013089061403   -0.07036525655348   -0.26971825337795
O          -1.43599735419211    0.28945872295664    1.86562608573121
H          -1.92016931714434    0.18180730694410    2.68452541026084
O           2.37060209638139    2.32911626292054    0.52549588341591
H           2.95474198399605    2.68522444809214   -0.14546996458613
H           2.23505007247167    1.38514333233975    0.29497296707969
O          -0.24214250999171   -3.24782489318757    0.10329479880718
H          -0.17168533650530   -2.57406641592310   -0.60498108164727
H           0.38956363906097   -3.93333681686476   -0.11889771254955
O          -0.29098759916015    2.31965240150079    0.29605584110557
H          -0.58683108461211    1.72804896626216    1.00502248811876
H           0.63371631099042    2.55398349219975    0.52243879328897
H           0.12536324602561    1.60640576572036   -1.08144389682089
O           0.54283311236670   -1.31127617437954    1.82585824330554
H           0.23135733914439   -2.13155802355029    1.39424398303519
H           1.07637186123916   -0.86147330517829    1.13661491051393
H          -0.63892720982510   -0.34545152875826    1.92027743407386
N          -2.06329234820258    0.03948378790774   -0.70992513687831
H          -2.00462702942494    0.97822555281944   -1.10086516009812
H          -1.19483865172401   -0.55113006804239   -1.12461594972546
H          -1.94305229074856    0.09480698968543    0.33490846616782
H          -2.94140209116820   -0.40594052609162   -0.95633058163656
