    26
        -50.45760698  Gyration_radius:  2.49462466351 Dipole_moment: 2.738
 S           0.37754413961741   -0.28189154363797   -1.34257583676397
O           0.90565423228765   -0.33195066931085   -2.79814907881206
O           0.35480086674146    1.13437757753833   -0.93694492450775
O          -0.95769641056593   -0.84590188867951   -1.29982694460925
O           1.32228326461772   -1.03343127874544   -0.52515150347765
O          -1.12794774104132    1.31668364634078    2.46822687389084
H          -1.82928048772348    1.93609292559525    2.26116121037243
O           2.46101070227716   -0.28690757735757    1.73978184626416
H           2.29748637034164   -0.58749824996593    0.81994423191547
H           1.99760672748708   -0.93009339360349    2.28945413458270
O           0.51386430033170   -2.48095473293371    1.54632757334114
H           0.79265647774941   -2.05016600845569    0.70863763582342
H           0.43014191448790   -3.41516010385287    1.35104796496281
O           1.07280481421734    1.79635706909092    1.33093288546721
H           0.19017599128104    1.66304608667150    1.86164649187725
H           1.70608871021058    1.02962543003147    1.60521575784734
H           0.80777339047983    1.56921755288267    0.32558516878586
O          -1.69382615364234   -0.89146280659739    1.25535707409519
H          -1.38971828702833    0.44371557711304    2.04173411191817
H          -1.55050759789701   -0.84951189998720    0.28651225703829
H          -1.04505213377008   -1.54628538404492    1.56893745184194
N          -1.23370932320596    1.01245029645472   -3.41277040396470
H          -1.86862626990266    1.17234118979629   -4.18454102123672
H          -1.06470574176981    1.89075152991937   -2.93904721524734
H          -1.66988301924914    0.38523618246959   -2.74278809805798
H           0.20106125364243    0.18132048322487   -3.27870765333396
