    26
        -50.45760694  Gyration_radius:  2.49467863194 Dipole_moment: 2.742
 S           0.11808438653311    0.04013361208432   -1.41753371369360
O           0.37115359882321    0.33216608331199   -2.91773728541618
O           1.16442838022502   -0.87790121689196   -0.98403668350709
O           0.22582615151413    1.32298379772931   -0.70090852492995
O          -1.20882098526408   -0.52273028852308   -1.25816321718579
O          -0.60996868972499    0.70178773180240    2.86968899219001
H          -1.31161414415157    1.35049533984742    2.94303125609394
O           2.72176544282318   -0.67576745072007    1.14149363066587
H           2.33975878742453   -1.43079814617547    1.60465019630740
H           2.38328679903894   -0.75432217246243    0.22366585300618
O           0.68499400833582   -2.77071873986988    0.81212817625132
H           0.52927405149315   -3.63359655181104    0.42609082219176
H           0.82574266710498   -2.15546293679997    0.05931357740400
O           1.36635509621357    1.44064873812165    1.48592362882932
H           0.91549132348924    1.45314794294487    0.52199082931907
H           0.58959121705358    1.18407574267743    2.12575761192770
H           2.00796688454728    0.63358888024330    1.45471131593216
O          -1.47327029703271   -1.16531101149813    1.30914166320187
H          -0.80482695434414   -1.87280922272336    1.33801609914034
H          -0.97949210240604   -0.04877370348284    2.31051051757709
H          -1.50578502895789   -0.89818375009256    0.36655031553298
N          -1.78956893671462    1.77437710174542   -2.80044359848472
H          -1.50490231413148    2.52081577526145   -2.17903634840789
H          -2.12023108214835    1.00710205612964   -2.22204957473814
H          -2.54741693613813    2.10418849692498   -3.38455446657702
H          -0.38782130360985    0.94086389223749   -3.12820106263226
