    26
        -50.45760688  Gyration_radius:  2.49442632718 Dipole_moment: 2.737
 S          -0.90264832398711   -0.63277862341374   -0.90090592422468
O           0.53256571338439   -0.90849616300819   -1.08831375195395
O          -1.35981742115670   -1.15410741382327    0.37266353082425
O          -1.17305855818229    0.79265802475189   -1.04472339243935
O          -1.65921606092283   -1.35032901690424   -2.04669201090890
O           2.35966968263250    0.59985102485130    1.77946166152858
H           2.80767724342185   -0.19662456091485    2.06838610365574
O           0.56735581325012    2.78129744617031   -1.05107308949628
H          -0.14012101429750    2.14559119135516   -1.29294460698969
H           0.27655166972255    3.15780279784166   -0.21190379172280
O          -1.42508278175874    2.37240331893761    1.07178677283111
H          -2.33588583822055    2.54844021329326    1.31118653614060
H          -1.45746667563103    1.76607251587055    0.29950556302310
O           2.20468010118501    0.87162419523915   -0.72424032988965
H           2.35440900051692    0.79299929321774    0.30047091028189
H           1.52100193017980    0.08740645408353   -0.94785496373242
H           1.66107897091779    1.73392143012592   -0.88233652326312
O          -0.15343158086757    0.26727070807896    2.26946739360255
H          -0.58798171277523   -0.36002156920349    1.65416614862052
H           1.39224691756542    0.48424634015012    2.03113921122454
H          -0.58054055632964    1.12281263021052    2.08566288278824
N          -0.75482697065490   -3.55164525908380   -0.99871087720261
H          -0.97658939339853   -4.53558732509699   -0.91498861461561
H           0.24061262916730   -3.45111535078187   -1.15187638253414
H          -1.43498357050879   -2.30224607745965   -1.86179144205113
H          -0.97619920318602   -3.08144621452262   -0.12554102346089
