    26
        -50.45760698  Gyration_radius:  2.49465888892 Dipole_moment: 2.741
 S          -0.94435289160641    0.08321851511516    1.06115625006226
O          -0.54577360165471   -1.30849188359641    1.14557723948144
O          -2.11949301565477    0.33721052743340    2.03820111618967
O           0.12914514864777    0.99087451409866    1.44759270136691
O          -1.42881808595943    0.40185814678522   -0.29334410474661
O           1.28807940992286   -0.41710598633549   -2.69609078896329
H           0.78125178010363   -1.01055243076695   -3.25227839251203
O           2.67793967794008    0.28125616745078    1.24746227402216
H           3.05925522062104   -0.01345520523255    2.07548310879137
H           1.73771939360544    0.49199024327626    1.43874828791610
O           1.51584996970135    2.61907751964358   -0.10491281586910
H           0.94285046680976    2.24738930857409    0.59983252950120
H           2.34867525120562    2.14057313979191   -0.01568990193182
O           1.58680218784086   -1.59494492690035   -0.41773023396316
H           1.45064027215582   -0.91066166678912   -1.83445590192850
H           2.20201265233071   -1.04091627182593    0.09483487795398
H           0.76770955792863   -1.61300346959951    0.12046614331218
O           0.02006061349111    1.60886839234881   -1.88727469748958
H           0.55542733325725    0.82039041906414   -2.29983103284105
H          -0.66198436687254    1.13808457120979   -1.21964119837173
H           0.66814516287653    2.11984261589150   -1.26844284051928
N          -3.33418098395390   -1.57826834670601    0.76601464124503
H          -3.46045449537523   -1.16776627248265   -0.15045489804713
H          -2.41226843555652   -2.00528102254449    0.78301688535463
H          -2.78724802466148   -0.32712086669901    1.71631474620048
H          -4.03699020717940   -2.29306575122241    0.90544601577402
