    26
        -50.45706875  Gyration_radius:  2.55759574265 Dipole_moment: 4.840
 S          -0.17957816469558    0.96940633907123    0.15790869726232
O          -0.49264351618472    0.70154964821081    1.63192953046183
O           0.47810076457542    2.27033832098162    0.08034767895412
O           0.73119471291326   -0.08285739290054   -0.32341171171379
O          -1.41876990055027    0.94757348814649   -0.61985117963530
O           0.89324767334809   -2.85805166577602    2.38631091423838
H           1.04031965078201   -3.07211753804074    3.30884914822422
O          -0.87447227599845    1.74955015060739   -3.06184443452058
H          -1.17206900003279    1.39655014253730   -2.18654833407275
H          -1.34056306883969    2.58006181096885   -3.17510320327741
O          -2.29308420429680   -1.55503221856216   -0.65196085845704
H          -3.24625884130258   -1.48339469586121   -0.73157486868157
H          -1.94539257281937   -0.64099971268874   -0.73036724083579
O          -1.41070216031401   -1.60536322869265    1.86786917166347
H          -0.91337857032215   -0.26197231347332    1.76304750185696
H          -1.72773752312584   -1.78803281506060    0.95491915468546
H          -0.61673918300757   -2.17287107346693    2.01293542565085
O           2.10557357742434   -0.50461705408232    1.89749523108081
H           1.70531181820016   -0.41403588712602    1.00812750271384
H           1.62905116345339    0.12938439633687    2.44101212298244
H           1.46335129486650   -2.08227140527510    2.18514654375136
N           1.56829030561033    1.56839020249005   -2.09175515812548
H           2.47389576281665    1.75811079166461   -2.50667992551046
H           1.31229117226175    2.15334805351671   -1.22726971185515
H           0.75127699364430    1.67724562952824   -2.74629501947192
H           1.47948408162552    0.62010803676380   -1.64323697743819
