    26
        -50.45706876  Gyration_radius:  2.55774390655 Dipole_moment: 4.841
 S          -0.10123317108968    0.51750242039400   -0.84769837568387
O          -0.75742236391414    0.44358871789915   -2.14955708117917
O          -0.71912732666426    1.69454571261591   -0.08913536660992
O          -0.35936463728092   -0.71527694184694   -0.08482605206551
O           1.34092411434609    0.72376945729242   -0.98469958311047
O          -1.72873417919140    0.30244279269317    3.40300614951686
H          -2.37595626360705    0.80940631584449    3.89562885907498
O           2.41176021323846    0.49213649091514    1.42940756606284
H           3.19051300833435    1.05177428041346    1.40937916449162
H           2.05363828446045    0.49374694828926    0.51597642133483
O           2.29217869978157   -1.13346740708433   -2.58106367488339
H           2.60067544896997   -0.67348695623876   -3.36404962073923
H           2.04050250697870   -0.42349473605743   -1.93921771108228
O           0.19388541288828    1.74416797685939    2.23135095859600
H           1.02523578487996    1.22847763148041    2.12966890183537
H          -0.32848582277295    1.76210026206779    0.89336210226264
H          -0.42807166519299    1.18280596069278    2.75221945041119
O          -2.72248251547575   -0.09894224989907    0.93317504944864
H          -2.16437721208539    0.03488546215913    2.56281802932087
H          -2.77800058807055    0.78123284568410    0.55027144618103
H          -1.88142647643515   -0.46336605822146    0.58796207118279
N          -0.17291706064596   -2.01408361921300   -2.28292624107344
H          -0.65099048359557   -2.82180963681691   -2.66667413959603
H          -0.23767103788250   -1.92032977656780   -1.23621730336937
H           0.84624624319617   -1.94297554319807   -2.53598096317756
H          -0.58929893311182   -1.05535035023908   -2.53218002717224
