    26
        -50.46223565  Gyration_radius:  2.40045093315 Dipole_moment: 9.366
 S           1.03404082188555   -1.43262113433124   -0.56850282640376
O           2.25662268820679   -0.66484685627752   -0.75422421582494
O          -0.04621036576728   -0.81752632111374   -1.39011167612582
O           1.11895270561738   -2.84233086305187   -0.78168533836367
O           0.60175289962534   -1.24178866386778    0.92796477078285
O          -1.73708129139668    1.42963534267287    0.90643539504100
H          -2.51692505458776    1.76265295680702    1.35174840098390
O           2.22716229219128    1.86383496957900   -0.49530803000201
H           2.28567525437202    0.86105133513785   -0.61238868456432
H           3.11778792196352    2.18858747925151   -0.63313195584284
O          -1.09457082702444   -3.35441915209672    0.68796994725293
H          -0.34971321249395   -3.28404610920128    0.06082257983413
H          -0.68356852405083   -3.34339570379110    1.55493078591397
O          -2.24154713325079   -0.96659223848051    0.07228152820385
H          -1.94094248416178    0.46657220372332    0.68518534983652
H          -1.55705063035803   -0.97772865869448   -0.62483536123387
H          -2.07715615493697   -1.81842277195735    0.52084949678116
O           0.86828516652347    1.19788414525962    1.79935695126994
H           0.79959894574291   -0.33612149208483    1.28378742500969
H           1.41108702105510    1.62681505032107    1.11793169850919
H          -0.06046343236160    1.42819281913506    1.63058647160788
N          -0.29394865937974    1.69375420049426   -1.36335758619860
H           0.65407876218085    2.05407932843954   -1.14991446560629
H          -0.93582647722684    1.82910653939920   -0.55719560708818
H          -0.67094635221847    2.08736573275801   -2.21754909383047
H          -0.16909388015459    0.59030788197586   -1.45164596994359
