    26
        -50.45706875  Gyration_radius:  2.55776360841 Dipole_moment: 4.841
 S          -0.77304012318513   -0.53722442224171   -0.33270952058300
O          -1.87512122774177   -0.46710300470841   -1.28735716868352
O           0.04829935925281   -1.72893873887131   -0.54812311507093
O           0.06179166561281    0.67104997257070   -0.44024072061590
O          -1.38375113917796   -0.58046802892917    1.06999888530464
O           0.44906184366836    2.17680815851894    3.11817759784175
H           0.00951466711135    2.48114936453017    3.91359896588370
O           0.78551603117190   -1.77814371633159   -3.06938952657433
H           0.35756982848882   -2.54604362222523   -3.45267248313081
H           0.59777260362611   -1.82756667634110   -2.09899645107371
O           2.17384957909996   -1.52632263948390    1.02317920450811
H           1.44461672360776   -1.58266383558208    0.36924307412768
H           2.42436296783484   -2.43129398581833    1.21883055985113
O          -1.33876171688537    2.29557833409613    1.10883413829349
H          -2.01536880035718    1.65667353591429    1.35055285877126
H          -0.16149313754805    2.36787193815152    2.37118741046954
H          -0.75934026560015    1.81351764109136    0.48334744377590
O           0.44415717936833   -0.47280806348242    2.76335537169833
H          -0.62993707310477   -0.56661730910737    1.81446404393324
H           1.22028942404984   -0.77196868644624    2.23843565152953
H           0.56776808542862    0.49155760929953    2.93114098079598
N          -0.32341853743470    0.60962794003293   -2.97029417590030
H          -1.21742551309829    0.22073204497554   -2.51830480279455
H          -0.45552132421792    1.32134914357806   -3.68039284853342
H           0.13661437500621    0.94969137630375   -2.08638467072311
H           0.21199452511455   -0.23844430944026   -3.28948069308805
