    26
        -50.45706878  Gyration_radius:  2.55776629285 Dipole_moment: 4.842
 S           0.93333566073733    0.33608527617048    0.11299542615076
O           0.92629475166150    1.02001340639428   -1.18054741962458
O           1.49397359375645   -1.07805680971936   -0.05593386379400
O           1.77948911830809    1.02883667823337    1.08003098935653
O          -0.44106651224647    0.23330650339015    0.63142755599276
O          -1.53055016512170   -3.48685034966013    0.40384483514682
H          -1.32281976051792   -4.39895909239984    0.61221685133491
O           0.28951010190133    3.53709172394279   -0.77920049885185
H           0.49434448668325    2.60428428376369   -1.03852235529364
H           1.06874600529016    4.04508499755126   -1.01276545742674
O          -0.90363678751080   -0.15792605498035   -2.69431772668886
H          -0.28575545545263    0.35064022418142   -2.12679408569972
H          -0.59400091429638   -0.04030652996984   -3.59447029344178
O          -0.17085292882111   -1.93094454500703    2.12932350741272
H          -0.38975773596094   -1.10443156578359    1.65148425560590
H          -1.15264515164052   -2.94136034060783    1.12981432487251
H           0.75383582145655   -2.09146890291010    1.92030996176489
O          -0.03393227366012   -2.39461857071467   -1.52319286099896
H          -0.51636296348197   -1.68206629256436   -1.99950898688356
H           0.88231313456322   -1.65575497524275   -0.69988886079092
H          -0.67798095489111   -2.80790771704874   -0.90040980681277
N          -0.14800584494231    2.57127168785714    1.63251680110562
H          -0.11587978707115    3.20594141716382    0.79340190914460
H          -0.45828031721400    3.01510120962765    2.48984701440502
H          -0.69951436425522    1.71908437272327    1.35336075039057
H           0.81919923283368    2.10390996556226    1.66497800361811
