    26
        -50.46972960  Gyration_radius:  2.43083250308 Dipole_moment: 5.135
 S          -0.02285573654441    1.47422401103566   -0.54176100977453
O          -0.55779580450796    2.00832673362231   -1.76662039558910
O           1.35180750750215    0.95941996005393   -0.70646938276691
O          -0.13442999778186    2.32078541495335    0.62213924715701
O          -0.89422767632523    0.17565515846359   -0.26659802446386
O           2.01626104477813    0.86797049198365    1.84500969369759
H           1.94590301980107    0.94759659712860    0.87126686461765
H           1.64609008910440    1.68939869973951    2.18110365860738
O           0.03921700660679   -2.80502004644998    0.14428265062863
H          -0.89125944315767   -3.03384682856016    0.10396189480582
H           0.13402945007053   -2.22071840054025    0.91779988316815
O          -1.40612253699690    1.37534618761201    2.74490897205077
H          -0.94935289111506    1.81040640649523    1.99109618032767
H          -2.25757881203257    1.80643316129880    2.82107516482088
O          -1.14237141228108   -0.11412379652140   -3.13202741640991
H          -2.00580553666420   -0.33519981601041   -2.77707265081208
H          -0.92574811971378    0.76847960030908   -2.72964175228670
H           0.07007173458926   -0.95412863492933   -2.49511545677496
O          -0.01784617833898   -0.78705854625699    1.99648607833263
H           0.84439508210506   -0.29755119035216    2.05029565997960
H          -0.62395742006415   -0.25346364311871    2.54074345872134
H          -0.59494910960371   -0.19345709231583    0.60821905665373
N           0.90471263562455   -1.26211933183089   -1.91754891090203
H           1.22906215341456   -0.35969402917882   -1.43584892075971
H           1.63911505519269   -1.65491081538238   -2.49674301888749
H           0.60363590636871   -1.93275028125213   -1.17294151412811
