    26
        -50.45706877  Gyration_radius:  2.55780847369 Dipole_moment: 4.841
 S           0.67656469667215    0.56748648942951   -0.46584926971709
O           0.56046757969524    1.64427271800394    0.61565394017905
O          -0.23187695584086    0.87942430643384   -1.56970376422495
O           2.06740904164251    0.54109228825372   -0.90850057450756
O           0.31405262545378   -0.73023517118816    0.12815231317260
O          -1.23512802229641   -0.05441449656831    3.62424582393304
H          -1.13887566791456    0.37331989705775    4.47650265312896
O           0.25529761814799   -0.79257912990274   -3.53671621912391
H          -0.03178364109496   -0.14809063603977   -2.84273612165095
H           0.60103047398514   -0.25907539870201   -4.25476281671185
O          -2.70778693913206    0.55237990475279   -0.68087033932013
H          -3.23927280317596    1.16146656400742   -1.19709641495765
H          -1.80351961742195    0.59438358261187   -1.05913176457069
O          -1.73917964547066    1.59243865555442    1.57971235828681
H          -2.24472393655264    1.14283310797794    0.86584599230100
H          -1.67734190572450    0.95494264854567    2.33020172076990
H          -0.41628167399693    1.66874232617862    1.02558309622311
O           1.22921170633973   -0.34688993232084    2.58096550685987
H          -0.32807369311588   -0.29090447033668    3.32634265092010
H           0.89178079642903   -0.62886682885208    1.70575386401663
H           1.53898690853533    0.55245143003617    2.44049813813512
N           1.76337891883514   -1.85629285768944   -1.65666096033919
H           1.23346966224844   -1.69880706523271   -2.55239752275292
H           2.22882070474212   -0.91238072127687   -1.43910764672115
H           1.05838481367835   -1.84158866445777   -0.87493767658995
H           2.37498895542433   -2.66510855622586   -1.66098696674606
