    26
        -50.45706878  Gyration_radius:  2.55776560504 Dipole_moment: 4.841
 S           0.63114081347854   -0.46865448236824   -0.61543403338446
O           1.48108097023332   -0.21629465838008   -1.77517215273600
O          -0.30446289628397   -1.56575356653901   -0.86457029714772
O           1.54875182434691   -0.83098901932081    0.55471982048392
O          -0.11282449143608    0.75227627257443   -0.26310496252793
O           0.45698546749039    1.45243693972677    3.51363741715249
H           1.09163729004941    1.56560118254892    4.22283025263103
O          -1.98151153727117   -1.66357788855049    1.18601887453527
H          -2.24701874573014   -2.58331984905354    1.24572973840940
H          -1.43184409170236   -1.59242604850351    0.37648026098164
O          -1.61224182210854   -1.04689742163127   -3.08327226570158
H          -1.20698596753468   -1.31133052816634   -2.22002963124706
H          -1.34336936595576   -1.72127281556072   -3.70996531905311
O           1.72892149578917    1.96699457844786    1.19749417903496
H           0.98485477206296    1.64655698412653    0.64698174950026
H           0.88872866769453    1.78826111772971    2.69618990739640
H           2.39341300874479    1.27542610056541    1.12921233569410
O           0.18155911906384   -1.05501105225466    2.62859005673190
H           0.17291324382285   -0.14812415765463    3.01707491594263
H          -0.71603866036120   -1.21470964400652    2.25959075843224
H           0.99350454124221   -0.96324011884674    1.44742223792549
N          -0.33699773739342    1.23652215645939   -2.76694227931530
H          -0.55080709388854    1.38595096544217   -1.74700787370225
H          -0.99377961437712    0.49047663173782   -3.11335224862302
H          -0.32206023169622    2.08267648988736   -3.32558214840477
H           0.60645105171429    0.73842183156285   -2.63753929301485
