    26
        -50.45706876  Gyration_radius:  2.55778248488 Dipole_moment: 4.841
 S           0.10397432943969    0.99078920516830    0.06612724100968
O           0.27355706662012    1.10325827404238   -1.45083129750022
O           1.41808132139549    0.88816680340015    0.70148646967121
O          -0.61597834536191    2.17895270901775    0.51448530057981
O          -0.68782943853854   -0.21591745612762    0.35804767846825
O          -0.97151949651315   -2.28210673146355   -2.91766218896749
H          -1.20287143987823   -2.28561186892904   -3.84770963082873
O           2.43598176356208   -1.47105464756852    0.04960845907487
H           2.04579134799192   -0.63259942107425    0.37716847674917
H           3.38643211988762   -1.34264913232597    0.06015204138349
O           1.09102231911924    1.04845671469118    3.30331002384570
H           1.31385603279043    0.93605963661702    2.34568885887924
H           1.51629080312889    1.86519236945501    3.57132974806767
O           1.29620543552741   -0.99946576800185   -2.31868247229683
H           0.52631461054946   -1.58071609226001   -2.52570546161058
H           0.73428672572891    0.23566859761303   -1.84798120065741
H           1.71858927400139   -1.36483339712361   -1.50908335656296
O          -2.26183784331862   -0.21756846170728   -1.76881356338516
H          -1.88321982069817    0.56312592292628   -2.18313699682157
H          -1.56201485302395   -1.62498476092359   -2.48535807212035
H          -1.77618204398603   -0.30540356566751   -0.92277755467003
N          -1.42624409663658    0.89951625707434    2.54083731619687
H          -1.29840969663555    1.69013066350342    1.82419103384350
H          -2.29187058355916    0.91141213738492    3.06887722014723
H          -1.33066357512984    0.09373941827969    1.87009100873953
H          -0.55174192658642    0.91844259399616    3.12634091895106
