    26
        -50.46438272  Gyration_radius:  2.63111211488 Dipole_moment: 4.459
 S          -0.02152692044350   -0.47235728981461    0.42889047470762
O           0.41462684280199   -0.40124366972272    1.81001350028126
O          -1.35861949059373    0.09557128197718    0.27227975447943
O           0.93423781588039    0.20038151442514   -0.46765929163158
O          -0.08774034088671   -1.96252801671910    0.01046931882253
O          -1.51230937794873   -1.24125634338348   -3.54854574688317
H          -1.88198001704620   -1.86695225586119   -4.17330885559607
O           2.59531381917411    0.73201431116390    2.70734451267270
H           2.59728657921152    0.65511362357908    3.66262394995083
H           1.85728084193813    0.15717332239206    2.38938226012321
O          -1.03939172937245    2.11586073338947    1.89398358399814
H          -0.96984418802472    1.62895840483551    2.71946333974603
H          -1.31366226598102    1.43099658220931    1.23683123286612
O           0.82108304682329   -1.71140376684091   -2.34299587143158
H           1.12751401704544   -0.84653329263754   -2.03100044811937
H           0.28263137105863   -2.00198703069199   -0.93619507337486
H           0.02655044146528   -1.53338644339768   -2.89957926062064
O          -2.71183930772488   -1.65048514884738   -1.19479397016101
H          -2.32174269567556   -2.44321857537844   -0.81683546779025
H          -2.34774700635715   -0.91578041969284   -0.65847331630775
H          -2.05269706646833   -1.31868632637922   -2.72757997315666
N           1.41163505856389    2.31283460034058    0.92872563751723
H           0.44244539222558    2.42971431342322    1.34512008874258
H           2.04852015920695    1.94505831021452    1.67079512206607
H           1.29930557734655    1.50448696822036    0.23107197288800
H           1.76066944381229    3.15765460319180    0.48997252622409
