    26
        -50.46438282  Gyration_radius:  2.63074376028 Dipole_moment: 4.454
 S           0.33750563761481    0.51432916182866    0.17639649386138
O           1.82783273987369    0.41564929606933    0.58759693516626
O          -0.46918129995038    0.06862447474404    1.31016811608072
O           0.04322580251650    1.89379352798777   -0.16020858755676
O           0.13528271633520   -0.37236685904322   -0.98244938853676
O           1.66773148669640   -3.37267934627064    1.50147308415738
H           2.32095391199517   -3.89445959329966    1.97004429838919
O          -0.73358992825947    2.80190976445074   -2.48779976526005
H          -0.28795024069553    2.52075535598073   -1.65196369439744
H          -0.87811522772564    3.74575270158476   -2.40554381946230
O          -2.68649666856685    1.25376004317906    0.60792789030078
H          -1.94791982538424    0.72646102134115    0.99843905275828
H          -2.40577263381045    2.16538527893791    0.72368762255756
O           2.36232123095565   -1.79410483175506   -0.53427899319976
H           1.54205272381344   -1.63516331672891   -1.02535053040933
H           2.17629837882012   -0.44274178600163    0.16723054459651
H           2.14468389748185   -2.47683074391154    0.14338327857694
O           1.21474183880594   -1.16796006376545    2.94355047953993
H           1.41971254940931   -2.63366725937704    2.10523436945702
H           1.96315205226367   -0.58261602952930    2.79947638389010
H           0.47811223050960   -0.75398083265258    2.44755409136809
N          -2.07994128378666    0.59317460817443   -1.87654459209804
H          -1.17714307695251    0.07453601330827   -1.61395794369178
H          -1.76256457390660    1.47162979768140   -2.34400818484284
H          -2.69290249544585    0.03374004735133   -2.45909709932949
H          -2.51202994249791    0.84706956041682   -0.94096004275096
