    26
        -50.46438283  Gyration_radius:  2.63104978723 Dipole_moment: 4.457
 S           0.17676672825930    0.41999012098202   -0.44819367306465
O           1.11501769988984    0.02804436714237   -1.61693100690584
O           0.17836064375323    1.86452947639340   -0.32129693773500
O          -1.16083828335237   -0.07627050411863   -0.76344307313040
O           0.69257341607633   -0.22335241818329    0.77247096162408
O           0.34039777532637   -3.78850396847802   -1.39706378803605
H           0.56698445902635   -4.47282653548043   -2.02865738729027
O          -2.47784697147194    1.53251827292561    0.81485511544584
H          -2.30365795090490    2.35907587295276    0.35689732351323
H          -2.13634631552380    0.84181176495366    0.19649297502894
O           0.98164934812950    3.25256712193264    1.74596763357565
H           0.83417134403714    4.18024404698295    1.55596750569376
H           0.82781203497804    2.77271518020642    0.89604006833345
O          -0.83397004435713   -1.80368215835253   -2.74880236728936
H          -0.13542241965712   -1.32435647104293   -3.20240271781000
H          -0.20258120156569   -3.12810025605850   -1.88826757887764
H          -1.11194674236451   -1.20716700316819   -2.02291404830518
O           2.16066142275636   -2.02603926114647   -0.56109863058594
H           1.62425935910332   -0.79406059350320   -1.30106987707950
H           1.80664128719321   -1.66516933089764    0.26576102727440
H           1.56121502556669   -2.76798002722162   -0.81201020416342
N          -0.51108430884125    1.20483888898654    2.54754922392292
H           0.03793705592854    0.51769948065941    1.93167520257879
H          -0.66141138289917    0.84982958708699    3.48535075133050
H           0.04463227666113    2.08926077835120    2.53013203964831
H          -1.41397425496792    1.36438356837871    2.01299146236679
