    26
        -50.46438279  Gyration_radius:  2.63086632355 Dipole_moment: 4.457
 S           0.26819999659535    0.57529858599486   -0.07673929581547
O          -0.41963155960272    1.80686669509925   -0.41304553951678
O          -0.48955448002364   -0.20453217040584    0.91715261664645
O           0.52203196181141   -0.22566279034142   -1.27204468041864
O           1.63744940424911    0.93291725316924    0.55346610643443
O           2.81982975579026   -2.76751718853818    0.89661282785965
H           3.69913682279239   -3.08938619188486    1.10077384831586
O          -1.76499304238901    0.22471128907955   -2.44780976877390
H          -0.87491568513228   -0.06583374442411   -2.13265640968469
H          -1.65023768516471    1.16062049474744   -2.63278480803898
O          -2.69749464257812    2.64374916718710    0.56398720881954
H          -1.76678174701341    2.44100335822555    0.30119862847576
H          -2.91990452229904    3.47025686952632    0.13289940827861
O           3.05320059363097   -0.99575214669208   -1.09104800827135
H           3.39102669623491   -0.18446043550160   -0.70223543542011
H           2.90893773610708   -2.21756081028946    0.08313581069682
H           2.11482120881988   -0.80049153373856   -1.29426367122308
O           1.67732082517854   -0.84880729319657    2.35644481541885
H           0.72810934460236   -0.92087207106328    2.17461374386003
H           2.09614591625071   -1.63058509351418    1.92486956824659
H           1.76449298840184    0.28552223634209    1.32805980774332
N          -2.86256944697169    0.06338373519048   -0.05028892792913
H          -1.94071965619825   -0.15261147946675    0.45617320685073
H          -2.59791128898920    0.06130816520894   -1.07796266752705
H          -3.59323930805168   -0.60292874617361    0.17375193635722
H          -3.10275020290062    1.04136385407751    0.22773964784292
