    26
        -50.46223553  Gyration_radius:  2.40037053692 Dipole_moment: 9.366
 S           0.84103655893510    0.17406130478774   -1.64518516228787
O          -0.06891830846449    1.20514435109157   -1.07141254127695
O           0.03777099897842   -0.83074233316796   -2.32619241396436
O           1.90255937121596    0.76749877775600   -2.39411232266504
O           1.51527907308190   -0.53818850786017   -0.42009220261545
O          -0.61980718537480    0.09733042654476    2.34211431924753
H          -0.61875675459578    0.23072577741513    3.29057965243337
O           3.23711363801833    1.55296762897174   -0.17505314807597
H           3.67795412782342    0.72220573397603    0.01516777769305
H           2.80152983917607    1.40969653956487   -1.03692890029449
O          -1.93854686728030   -1.90310969627372   -1.14024703262469
H          -2.32926036991023   -2.54664297845438   -1.73259999723230
H          -1.16504693607489   -1.50088319350183   -1.65266439420262
O           0.95689126281715    1.84962913812189    1.27644064460366
H           0.55398160479501    1.82112168865121    0.38678052341737
H           0.07610900679701    0.73065806214317    1.97796374114230
H           1.90655579568255    1.76865107478089    1.06318886362918
O          -0.06694510140437   -2.16665841103998    0.85568305436780
H          -0.30648282178108   -1.50801648603753    1.52863725757440
H          -0.82322250939326   -2.26900126789976    0.25525959154628
H           0.94092978461760   -1.23111258550027   -0.00072644374352
N          -2.14588086651109    0.43425695810155    0.13722706286678
H          -2.37748079964172   -0.48278747132513   -0.28655006308875
H          -2.92206042445878    1.08415472416312    0.09403408187261
H          -1.78952573513282    0.31899053012849    1.10674129666604
H          -1.27577638191389    0.81005023486023   -0.44805325498720
