    26
        -50.46438232  Gyration_radius:  2.63106423974 Dipole_moment: 4.466
 S           0.55646458533223   -0.03112467616101    0.31138467236528
O          -0.03310502653804    0.60175352428390   -0.88104333412396
O           1.69575078168740   -0.85608276545368   -0.04090542558381
O           1.04160935902779    1.10092217257724    1.25115018731858
O          -0.45049696917632   -0.80826173322436    1.03028607491938
O          -2.53051492217202    2.55393787115262    1.86782700158731
H          -2.80026326060467    3.20003597995116    2.52228954300141
O           2.67538058676830   -1.23129860368044   -2.43772243171387
H           3.40435228050376   -1.84934490945960   -2.36686216988871
H           2.43734179219823   -0.98363947338930   -1.51133028872811
O          -0.25589463611410   -2.98145349012846   -0.40319590853137
H          -0.47157080249238   -2.23877346962046    0.21155586470365
H           0.62974364817411   -3.24761969943552   -0.14211289341583
O          -0.39672915933160    2.97019757629219    0.32118699238956
H          -1.23836986788470    2.91844989820849    0.83282843277608
H           0.54137505051737    1.93711237859138    0.95915077744534
H          -0.50866609051414    2.37798946101648   -0.43774249690513
O          -1.12888135363901    0.66055558632220    3.13135450650242
H          -0.98944919272888    0.01191993941130    2.41039060616303
H          -0.25610175020624    1.02454184567871    3.30233585432002
H          -2.13003014826228    1.80454119543189    2.36799568542321
N           0.02355571199721   -1.40073404086049   -2.50114530509733
H          -0.16820967354350   -2.16365437884319   -1.78876033616551
H          -0.59726874848426   -1.43890214311502   -3.30187172472361
H          -0.08343807923222   -0.49039503541604   -1.94177243620603
H           1.03341591185396   -1.44067303089294   -2.76527146715346
