    26
        -50.46438283  Gyration_radius:  2.63068680063 Dipole_moment: 4.457
 S           0.28042417577380   -0.56756881228020   -0.09192953717791
O          -0.30846839417433   -1.72352402973489   -0.73984411035421
O          -0.15377504758535   -0.46972992304567    1.29975934640720
O           1.82085899239255   -0.73252684137261   -0.09720667078941
O          -0.03753368954646    0.67230249051967   -0.82099814492202
O           2.50325928240203    2.51752451333915    1.94927951051109
H           3.32424257097358    2.79679705335532    2.35726938529507
O          -1.74862468848417   -1.72504805189686   -2.92436808303939
H          -1.07936375314498   -1.77995323448529   -2.19961226044402
H          -2.02415262297940   -2.62620925256629   -3.09862403234481
O          -2.63828025693175   -1.16786315858595    0.90715443150394
H          -1.75233268911157   -0.86401240964246    1.22152492087742
H          -2.49205022541498   -2.08356171686225    0.65519805416016
O           2.43480512397983    1.67913793463591   -0.58290049302972
H           2.19799829726996    0.18781545076472   -0.31027623817241
H           1.50811457990781    1.76119963752810   -0.85446826066506
H           2.49600591775168    2.10458139821457    0.30476648174027
O           2.04595996822602   -0.00524445043153    2.70595168450989
H           2.28633414318822    1.63822725308205    2.33896674137262
H           1.15565397310571   -0.16481311256122    2.32923188246397
H           2.63221846159057   -0.56290119365543    2.18751908046969
N          -2.52895824440006    0.24610381610094   -1.32131353315361
H          -2.47985569794956   -0.44432855450077   -2.10353502929308
H          -1.51666414200027    0.57153771957660   -1.17190742259746
H          -3.15962318296966    1.01674363914481   -1.51216443613987
H          -2.76619285162842   -0.27468616351200   -0.42747328733334
