    26
        -50.46438281  Gyration_radius:  2.63110173469 Dipole_moment: 4.457
 S           0.06644802981789    0.53644307174027   -0.34087851005956
O          -0.83224820415769   -0.36926059584516   -1.05282975720902
O          -0.57868859892962    1.80836215954878   -0.07848448396340
O           0.54654247555860   -0.08533841991066    0.90525606933861
O           1.29935332556547    0.78765254911897   -1.24463063479443
O           2.21405713024323   -2.98617989029723   -1.61414671412613
H           2.83685943173953   -3.38384637015866   -2.22448017616450
O          -0.89156522486741    2.95262797789140    2.25346441890161
H          -1.38166265071530    3.76553204994954    2.12152923682799
H          -0.64670356542455    2.63288965509653    1.35119484370352
O          -3.00465327690536    0.24123254134527    0.25948400892207
H          -2.28118317301118   -0.12071933031895   -0.30761763362426
H          -3.11244754344353    1.14383795889769   -0.05180047378284
O           2.88557405017273   -0.85935855138060   -0.14983616519021
H           2.24979303011088   -0.84095091169086    0.58138545252959
H           2.72886242669657   -1.70966514296893   -0.62439035488908
H           2.03587506629838    0.18556183809472   -0.88406593377168
O           0.60437069949370   -1.39213104321008   -3.03318777333740
H           1.55309434994893   -2.50703243478847   -2.16702793609407
H          -0.04524102651857   -1.11189823601066   -2.35536085996548
H           1.10537099685057   -0.59660434782102   -3.23236190878453
N          -1.48869802163415    0.36814308983714    2.41901221725465
H          -1.37612718082347    1.38336256362825    2.63837208504224
H          -1.66039622803971   -0.19836003135786    3.24223338772648
H          -2.24194937088648    0.26548765010184    1.67840998704354
H          -0.58463694752947    0.09021220090289    1.91075760818583
