    26
        -50.46438272  Gyration_radius:  2.63108150823 Dipole_moment: 4.460
 S           0.02829347380111    0.34440396986351   -0.53825499824662
O          -0.32682938359614    0.49091997493672    0.88391382159370
O           1.19713730507254    1.31762181980087   -0.83194345358559
O           0.49668616936645   -1.01209435151010   -0.81270304320641
O          -1.08731771631332    0.69238848348563   -1.39683409113996
O           3.69687506507682   -0.43078270389153    1.60102881305259
H           4.64268884759393   -0.29402179931000    1.67335385034664
O          -1.85343347214606   -2.10230154228216   -1.13293942280765
H          -0.90347092455798   -1.85685253766463   -1.01673502321315
H          -2.10802984171773   -1.66099097746745   -1.94760774246761
O          -3.45630393598817    1.50012286393946   -0.63628219069179
H          -2.53294819265828    1.35948649367921   -0.95885846551341
H          -3.99495900005628    1.61813229132582   -1.42011802230711
O           2.00514647071438    1.63181767438363    1.55038021707733
H           2.65987013046460    0.90745655155084    1.68978471568828
H           1.60237285122493    1.54604414605622    0.07287192346904
H           1.14265081203908    1.26170235930692    1.79193573617771
O           3.13744512123741   -0.83861963565568   -0.98093153631442
H           3.16780901968416    0.01973617910291   -1.41192431890088
H           3.52802471672149   -0.70554169138604    0.66934434678487
H           2.18431509971315   -1.06234112595235   -0.94220598030050
N          -2.67802062461725   -0.56203401889240    0.84850856856029
H          -3.09340176869843   -0.93452745630450    1.69510139718216
H          -2.48866752705560   -1.30570226858202    0.11554070001556
H          -3.25032660923070    0.19511465913673    0.41182589592361
H          -1.71560608536816   -0.11913737996582    1.02374829185677
