    26
        -50.46223569  Gyration_radius:  2.40044586479 Dipole_moment: 9.372
 S           1.50761801081131   -0.68453044194084   -0.83930996590616
O           1.02311875164904   -2.05519726163256   -0.91298942843670
O           2.83681386740697   -0.44446112942231   -1.30366589347574
O           0.52180537631733    0.20776828496788   -1.51175622376793
O           1.49415377301604   -0.27981991965717    0.67674542455072
O          -1.60711430848794    1.37588014644929    1.18713878308709
H          -2.02517776569529    2.06496674245457    1.70457984226006
O           3.07704359212565    1.85514049725376    0.10270901972575
H           3.31384180008615    1.46779049654084    0.94802779551575
H           3.07068603225623    1.10324665791173   -0.51994677501768
O          -1.35485530694500   -2.60767838015257   -0.20478479107836
H          -1.48495937516630   -3.55144311835179   -0.30509801449477
H          -0.40341438049466   -2.43445706208967   -0.50065066459472
O           0.41801050727278    2.40593429056771   -0.05026127763720
H           0.46237725978772    1.72882219998174   -0.75329608711339
H          -0.77339527357851    1.79333367071358    0.80182500518723
H           1.35094910669426    2.45262344472824    0.23474156501217
O          -0.62114124560127   -1.08600044732352    1.96408251141914
H           0.73724892442553   -0.67441626814429    1.18412607369457
H          -1.08696391092420   -0.23962072869483    1.85993434888152
H          -1.02781856554736   -1.72723970732066    1.35888403557266
N          -1.93199765364533   -0.13382016607231   -1.03147076496602
H          -0.86380060320875   -0.00057979521932   -1.31816781468413
H          -2.01794932832886   -1.13530012677319   -0.77836829559232
H          -2.06643280622296    0.47493630768157   -0.20005231672991
H          -2.54864646800578    0.12412183354583   -1.79297607140920
