    26
        -50.46577043  Gyration_radius:  2.40764975879 Dipole_moment: 3.804
 S           1.44425867275565   -0.86671932922906   -0.14539834782751
O           0.33689815779103   -1.43581725343574   -0.94242336482302
O           2.64755653976402   -0.70464750080767   -0.91983328633128
O           0.98000727764505    0.61617995794848    0.18401021979507
O           1.59861706882578   -1.55181553841849    1.11422937984343
O          -0.88042685724908    1.42592831538150    2.53242019711602
H           0.02220232397891    1.73721735307488    2.43621562793651
O           2.10893575260525    1.38978778542622   -2.33188196069810
H           2.28402063652120    2.09933958657412   -1.70976249499859
H           2.42949878275285    0.56620914814416   -1.87178846334738
O          -1.99262147655446   -1.55970534735290    0.37870259302297
H          -1.69895362952913   -1.61625126366788    1.30217259149352
H          -1.19848673153887   -1.76952722052605   -0.14760193045544
O          -1.60504459677860    1.00036328071871   -0.00827548268545
H          -0.01078919514924    0.70741967799852    0.16255382518841
H          -1.94377230102645    0.07155742896448    0.10508399740097
H          -1.63065192298352    1.38501130367692    0.89050946223074
O          -0.45406073052791   -1.27848006387758    2.64903892824119
H          -0.81026082078024    0.46809767153736    2.70735903717228
H          -0.30371949952132   -1.81187000512305    3.43076166265404
H           0.35636599388458   -1.39332165354098    2.08142634799870
N          -0.36140582708925    0.52264778243746   -2.41111651358590
H          -0.11448926242959   -0.41029792868382   -1.91251393611365
H          -0.99393520384956    1.01964983421742   -1.76909602211092
H           0.58001282847645    1.01981652025363   -2.48706229151473
H          -0.78975598999747    0.36922746829596   -3.31772979559558
