    26
        -50.46125096  Gyration_radius:  2.43537702449 Dipole_moment: 6.920
 S           1.99297919802272    0.02172952684537    0.05480669603049
O           3.38842149106120    0.05565034934074   -0.20725602115185
O           1.75641001831241   -0.49355758341599    1.51544575097578
O           1.32891350644013    1.33421501615814   -0.02320140813683
O           1.24277617947019   -0.91750100388970   -0.82136790138453
O          -2.15608109611186    0.57033236481731    0.93106409046042
H          -2.96145741988205    1.04530171544626    1.13914341715636
O           0.28054959040589    2.45347106123506   -2.14218730701979
H           0.75498676979383    2.21186953019292   -1.31120288853521
H           0.95949920870695    2.54216022681036   -2.81275346067312
O          -0.23068761872731   -3.10575739836246   -0.64485771490246
H           0.42342786708469   -2.39582668475639   -0.81489088027879
H           0.27250930340446   -3.91661075746056   -0.55768200514477
O          -0.12427336555120    1.67762818970021    2.09343676408904
H           0.48319227832181    1.67098139212911    1.31206690628242
H          -1.41696411782203    1.05015550971680    1.41406276853529
H           0.30188355685199    1.11331400111292    2.74390317816776
O          -0.58545980330737   -1.65077209962896    1.61245765111181
H          -0.59469639551254   -2.28632051074101    0.86918852255538
H           0.87387826027798   -0.94936288059226    1.55351221582417
H          -1.29867973074879   -1.01935466748767    1.44352104580519
N          -0.96840507395319    0.19408017787611   -1.48481925023603
H          -1.49312648777490   -0.38231449704694   -2.13426146629583
H          -0.67503152759352    1.10784366806193   -1.90507214510762
H          -1.51437526711065    0.36801926133653   -0.61390377937825
H          -0.04018931405928   -0.29937390739795   -1.20915277874907
