    26
        -50.46125098  Gyration_radius:  2.43537751805 Dipole_moment: 6.920
 S           1.21053922056886   -1.58367919281088   -0.04966443639077
O           1.84293584940102   -2.84209910310582   -0.23271472786536
O           2.29211596070901   -0.51455336649657    0.32719999483465
O           0.55074396774009   -1.06207347974323   -1.27654032196094
O           0.21839240529697   -1.55585769448482    1.03869986853066
O          -0.87268787355402    1.97241687684465    1.09028260676485
H          -1.40372285312263    2.54911576359205    1.64061607072780
O           0.70751882861926    0.98767708248897   -2.93923233917287
H           0.68313025351586    0.12748626167174   -2.46998580641796
H           1.40265840039388    0.91419515725592   -3.59467194012975
O          -2.33015372977150   -2.12054787560781    0.87184901185431
H          -2.42755027706587   -3.01716105062474    0.54767690703476
H          -1.37503275426606   -2.02036206297469    1.09924502794996
O           1.45079487537178    1.82727000877723   -0.47333758673556
H           1.98421665428463    0.37572325016614    0.00992538515828
H           1.19616674925360    1.70794036090302   -1.41002582594532
H           0.64928177002241    2.09477156991070   -0.00224501775638
O           0.67453800601130    0.49690389549493    2.55122351900043
H          -0.30033060888204    1.43677362926082    1.71901613931563
H           0.49842601291684   -0.36084328233382    2.08982183507953
H           1.61026456889463    0.66551104643512    2.41283959938130
N          -1.67947683636461    0.00248718182212   -0.59989347587840
H          -0.73409692731519   -0.43620266043429   -0.90791494150048
H          -2.19963091419735    0.32078418484957   -1.41072512242745
H          -2.17468718931134   -0.75947214997736   -0.07854259267582
H          -1.47435353915015    0.79379565912044    0.04709817922533
