    26
        -50.46125097  Gyration_radius:  2.43546648417 Dipole_moment: 6.917
 S           1.84107960681531   -0.13385181891240    0.75325704728365
O           1.68850318137809   -0.50536025789022   -0.66390141853827
O           3.08052025895440   -0.52034127117702    1.32900869809675
O           1.71437129256253    1.42712557304414    0.80422427452455
O           0.65430534064184   -0.65027567138316    1.48645653115676
O          -1.59349532688793    0.93284395469500   -1.55861049967426
H          -2.12110526707136    1.07549159014598   -2.34525900037090
O          -1.44262371986421    0.24671890563328    2.82458977350251
H          -0.62268709692755   -0.16872433108151    2.48415240135221
H          -1.25477676374219    0.50612634579561    3.72775990844481
O           0.73146688106842   -2.74384728096658   -1.62047653127762
H           1.25775527857931   -3.47218948420883   -1.28728825779212
H           1.23543584649972   -1.92525073207397   -1.39683596164409
O           0.87949344695787    1.56070510858326   -2.00043246851534
H           1.28602698869963    0.75889962970002   -1.58626871941808
H          -0.65504414731160    1.19821752470059   -1.80091847673247
H           1.18998928537533    2.29879335153020   -1.46937371314468
O          -0.82342733306796    2.04663314881009    0.89705027907880
H          -1.28140395880347    1.77758114628778    0.08845918852822
H          -1.19860991328939    1.50764057205815    1.62171553961121
H           0.75125945645549    1.66743052192753    0.85664062247342
N          -1.09513773910003   -1.38792411143850   -0.23414311244394
H          -1.90306703403777   -1.80676344003523    0.21440487302113
H          -0.57879299450814   -2.06482456735552   -0.84480004254830
H          -1.36917172464799   -0.55102741074041   -0.79214295254694
H          -0.37086385472872   -1.07382698564781    0.51273202757200
