    26
        -50.46577060  Gyration_radius:  2.4073472489 Dipole_moment: 3.803
 S          -1.53995023787567    0.39951247374379   -0.57436315459584
O          -0.45043841068207    0.83062674340216   -1.47569473704838
O          -1.98830002051948    1.47853046524716    0.27088264542412
O          -2.57473852392470   -0.31861052946509   -1.27248964346310
O          -0.87061114952230   -0.68687076216553    0.37205853425378
O           0.75669053493979   -0.07136101996946    2.93837468639791
H          -0.05397426504155   -0.58489562917585    2.93013608702148
O           1.61072531453546    1.97715172534248   -0.20099207894261
H           1.18471402312122    2.32995627106324    0.59671186760663
H           0.87406782940139    1.78044518983120   -0.80952908217140
O          -1.48197355401956   -2.62951615505742   -1.64106160934492
H          -1.61219062289568   -3.04903819508482   -0.78770991654271
H          -2.00467779349432   -1.78295615638324   -1.58817408617308
O          -0.15638167235765    2.29191252572891    1.89169761353821
H           0.49410634006870    0.83639483258058    2.69394641389477
H          -0.50615994303458    3.04591976906360    2.36855184455567
H          -0.88649125466353    1.99175608156489    1.28443593657227
O           1.74374119324752   -0.54253895863284    0.49609397194537
H           1.71108087302123   -0.52269639454122    1.47332152448076
H           0.11387186539909   -0.56030310437679    0.44307153147245
H           1.89288694794899    0.40449376429846    0.22921516166402
N           0.78123630629918   -1.34693019245615   -1.94729857616658
H           1.39626181268795   -1.39409112098286   -1.12327154376988
H          -0.03711532089320   -2.02626145962889   -1.85705865032161
H           0.30594606585586   -0.37147517849399   -1.90054507889518
H           1.29767366240602   -1.47915499545066   -2.81030968140765
