    26
        -50.45496827  Gyration_radius:  2.51159286144 Dipole_moment: 4.599
 S          -0.14081571920577   -0.05325006719787   -1.33721583304566
O          -0.08269866662494    0.19130378023783   -2.86608603007791
O          -0.43644216189370    1.25352737758616   -0.71485304609531
O          -1.18281967258201   -1.01012389775076   -1.03930729398919
O           1.18553222162113   -0.51072221837778   -0.93858212096634
O          -0.41486063719959    0.27072374360270    2.95120624808917
H          -1.28024822966118    0.54596312969844    3.25776992874644
O           2.85603616464662    0.71244700456967    0.62085045897060
H           2.30168132897670    0.19711871961395   -0.02052155903172
H           3.48587558908534    1.20782907374417    0.09460028037607
O           1.72939809558931   -2.47316697406640    0.84921294916769
H           2.39738726783998   -2.00807874653934    1.35807168267745
H           1.56525310254671   -1.92542527947464    0.06102540390947
O           0.70235685229502    1.87281040240899    1.37462949973121
H           1.63270888613016    1.49859248334164    1.21073964021388
H           0.18190717141573    1.66101466506771    0.45539473437414
H           0.25016460082578    1.24646166428392    2.08323099223027
O          -0.81809336042319   -1.79642792911547    1.48919416486467
H          -1.06760604258382   -1.55631689931531    0.57428108212507
H           0.03889848077953   -2.25712376651612    1.39675029861554
H          -0.56604623948889   -0.57186447081867    2.40828173591475
N          -2.61312781508032    0.75229646760229   -2.70678245021428
H          -2.60626290540940   -0.00637612923006   -2.03009986101675
H          -3.44008994028387    0.67645601215985   -3.28518528253807
H          -2.65338192846755    1.62178284358416   -2.19070277515549
H          -1.02470643286845    0.46054902079050   -3.05590280789911
