    26
        -50.45599947  Gyration_radius:  2.47902198913 Dipole_moment: 2.529
 S          -0.75179139600281   -1.12701259802900    0.59292421143570
O          -1.80561448487679   -1.07650514109574    1.68270178428595
O           0.57135864382803   -1.19460550762657    1.17099322414059
O          -1.04130446479869   -2.19128228583878   -0.32378839927825
O          -0.92252252182353    0.23021080792820   -0.11226159802269
O           1.83512619870347   -1.88654928273955   -1.08152682026859
H           1.56769929656442   -1.71569471396821   -0.16072605782832
H           1.33626222937620   -2.65970799194718   -1.35778801438375
O          -1.26575457665721   -1.60992273532576   -2.93928389636394
H          -2.19292970428675   -1.54268973174422   -3.17146688180369
H          -1.23643173424650   -1.94792413448447   -2.02314582542293
O           1.10500324328001    1.26502828685740    2.15020454449264
H           1.15004998078717    0.34469752070769    1.84182578054364
H           1.13128141759922    1.81838191774841    1.33273477140930
O           0.56233363189115    0.17563743513607   -2.14322900790557
H          -0.05250472110117   -0.31981804899058   -2.72132363067754
H          -0.30650583217125    0.28437992112068   -0.94580340537774
H           1.21978906102097   -0.50370082497772   -1.85526910977619
O          -1.29896206952874    0.99345309459734    3.00524404906152
H          -1.22830547837497    0.76349206226764    3.93480236043030
H          -0.35794212195270    1.21367823170710    2.69743119481841
H          -1.65026980481729   -0.20907116116330    2.23662523358041
N           0.97784977813473    2.61891777071604   -0.21040721908706
H           1.42049431721152    3.51926468261597   -0.34443458263908
H          -0.02455119431290    2.74419982699090   -0.28204633372900
H           1.25814230656912    2.01314261953215   -0.97298638163378
