    26
        -50.45572203  Gyration_radius:  2.47869920261 Dipole_moment: 3.362
 S          -0.39501716975784    0.09498313790024   -1.12289631603409
O          -1.12073548239780   -1.02675540619338   -1.69542110902789
O           0.21021148589985    0.95393546658986   -2.25413848136095
O          -1.23253152150847    0.94174613258429   -0.29922896985901
O           0.75058616251760   -0.41246711097398   -0.32188115722805
O          -0.35699480697468    0.51763454863688    3.27041079663467
H          -1.20714845873947    0.67704713585429    3.68404684193101
O           2.37198156861464    1.48741159487479    0.64479864003309
H           2.93586049841705    1.03387389095582    1.27408150164940
H           1.85460012122066    0.79457628936728    0.18884978031273
O          -2.57634753332271   -1.28526739200878    0.46922486385351
H          -2.73031911748872   -0.33115797473971    0.48879430686043
H          -2.20229703015411   -1.42179501781151   -0.43095865563481
O          -0.00802232865701    2.39740810148518    1.57329269492016
H          -0.52877526379464    2.02710957737504    0.83243386777432
H          -0.18369495191896    1.31477064025477    2.65999714128404
H           0.92160646721764    2.32688573376314    1.28105043398796
O          -0.34648408115509   -1.41688839636561    1.67447507793242
H          -1.30770556822127   -1.47021470973767    1.29229604343429
H           0.21011906606679   -1.05562784518944    0.86193108885108
H          -0.33555274426061   -0.64257355458262    2.39561820512293
N           1.14157717360247   -1.18537880589480   -3.38662930225685
H           1.18736311004072   -1.44566892126614   -4.36315744695441
H           0.31129357059419   -1.59911283642093   -2.96936607232826
H           1.95417689542470   -1.55708809075657   -2.91280222266518
H           0.68224993874590    0.28261378230225   -2.83482155122647
