    26
        -50.45572181  Gyration_radius:  2.47895306151 Dipole_moment: 3.363
 S           0.32368120542297    0.46619057509080   -1.04947387179767
O           0.67014894427546    1.87694550067664   -1.09974072792011
O          -0.85659043079766    0.27650107575150   -0.16491873759813
O          -0.10158409387010   -0.01457844209010   -2.45365703977006
O           1.41856676636528   -0.36310586681794   -0.59079207094901
O           0.71944329892929   -1.63239628499067    2.81323679882611
H           1.60845287479748   -1.69514015269795    3.16690101800903
O           2.15043604613956    1.66553200979664    1.05324684124608
H           1.68961867928232    2.03254845084401    0.26468872285989
H           2.56083843915678    0.86439210049316    0.70082548186978
O          -1.82047881811558   -2.22112906645320   -0.10000044725654
H          -1.54711175519062   -1.29053115760125   -0.22185845020616
H          -2.44145814442474   -2.22705043908632    0.63077422628371
O           0.06288960983586    0.68438140107896    2.11239571293012
H           0.31741788298304   -0.27938119609715    2.46788955778474
H           0.94212319247215    1.15046413860770    1.82536616496692
H          -0.42995661367894    0.52895650188553    1.19949537844361
O           0.77838035038272   -2.71491494957583    0.49785582628635
H           0.72774016817025   -2.14119680664143    1.93071567254456
H          -0.15336570930751   -2.79940519384245    0.21640036259077
H           1.12291743469563   -1.95480406555561   -0.01259492903009
N          -1.66085907194371    2.04381983317497   -2.69354559369202
H          -2.51033359964741    1.95887239950402   -2.15119314364480
H          -1.84216909576376    2.64054085890995   -3.49009000266216
H          -0.94965029276220    2.47533572242657   -2.10826307503068
H          -0.77909723739890    0.66915305320817   -2.74366367508630
