    26
        -50.45572201  Gyration_radius:  2.47878039881 Dipole_moment: 3.365
 S           0.16394518397790    0.72835252590685   -0.93183709560217
O          -0.77485478385401    0.91945008905313   -2.14263541742464
O           1.52608551287534    1.06499056060111   -1.31137486552620
O          -0.32778382972179    1.53664882073115    0.16441473576693
O           0.09210396167253   -0.71165020251191   -0.56763323279680
O          -0.58181687166654   -0.50512076146609    3.23994929401270
H          -0.41063895721980    0.15809867517109    3.91085246089030
O           2.18545625978702    1.52640012610891    1.18326660485779
H           1.37913662866445    2.04486765377968    1.30773855082473
H           2.22829246697282    1.43187746680910    0.20445250106305
O          -2.37506713755974   -1.61643321799033   -0.05097330508162
H          -2.24373830206774   -2.48314991799119    0.33788215864478
H          -1.49741871888459   -1.31729439040358   -0.36060413374489
O          -2.29954074927085    0.50419881565963    1.63790710326211
H          -2.59369672586677   -0.22847368157477    1.06242115032263
H          -1.32915580175879   -0.13276529592312    2.65612761136244
H          -1.69136594413731    1.02848453037079    1.07894126243515
O           1.29761482836720   -0.81307321495909    1.60825713135588
H           0.53258397255338   -0.72879738264758    2.33448560702518
H           0.80517063804840   -0.88555703635880    0.68474480557266
H           1.76970016081877    0.10694578883489    1.54831486974941
N           0.87781262213509   -0.40500460385651   -3.63976671160111
H          -0.31190064837168    0.42085220330724   -2.88265589567152
H           1.56070376489711    0.00360595860948   -3.00625526674013
H           0.84522250318169   -1.40184397349962   -3.47192082731673
H           1.17314998644947   -0.24560952575754   -4.59409910564369
