    26
        -50.45499211  Gyration_radius:  2.48883408138 Dipole_moment: 2.384
 S           0.46391414442049   -0.28772257154164   -0.84125032139251
O           0.04614416053949   -1.29592096126982   -1.79345835179224
O           1.11859423130749   -0.87494854126639    0.33764686828193
O           1.53302515434103    0.64116806611265   -1.49122973412350
O          -0.65812032726747    0.55431787231204   -0.43240659862934
O          -0.82393423659394   -0.33468001414386    3.39174809011989
H          -0.60240545856731   -0.59442472598681    4.28817323083728
O           0.67587160047471    2.65361304421877    0.52008531121992
H           0.04253685943979    1.99427955613159    0.17381005386865
H           1.42866934920888    2.61522903135460   -0.07511010777617
O          -2.13598757324664   -1.61784116152899   -0.26497666831696
H          -1.98963083714166   -0.65200368317041   -0.23211098188909
H          -1.55500687497469   -1.88429509882965   -0.99997643421226
O           1.24901573583537    0.84193186427023    2.42487008246235
H           1.04645746585575    1.67846064356069    1.95686093718521
H          -0.05299395918973    0.23406867382461    3.06389962606028
H           1.42182494229536    0.20661071834614    1.70602880777722
O          -0.59051138639532   -2.13258078402796    1.66448611289602
H          -1.35589876508134   -2.03847671439439    0.96824615743435
H           0.21312520180540   -1.72583944032112    1.14781787109170
H          -0.76862353914841   -1.42682223692591    2.43598606999121
N           0.21745482468833    0.74556337555759   -3.72233305931783
H           1.16994481003070    0.81925238794683   -2.41389072213587
H          -0.09928620628964   -0.17504865046247   -3.42562171316716
H          -0.57548116119862    1.37356308348462   -3.72321445507618
H           0.58130184487311    0.68254625674755   -4.66408007139755
