    26
        -50.45627823  Gyration_radius:  2.48766649227 Dipole_moment: 3.726
 S          -0.29407062136963    0.49238624506048   -0.83203763965168
O          -1.28634053001802    0.14256249948847   -1.81265665179386
O           0.55133621963549   -0.63529479703567   -0.44008593154269
O           0.68952001559360    1.56042296488514   -1.43506111190149
O          -0.85893616109638    1.14667519950731    0.35707058329398
O          -0.19746838869987   -0.75171880356106    3.41145007308338
H          -0.55783763333785   -0.60708687263992    4.28848979211199
O           2.54434594401948    0.59903403376614    0.63478109968656
H           2.65290764436420    1.32056940589698    0.00839842922061
H           1.90033414661131   -0.02138126912667    0.20267665426633
O          -1.65196470479564   -2.20568028886513   -0.42517177355145
H          -1.94019371216400   -1.56382844623637   -1.08830780978749
H          -0.70250113225121   -2.03080679791937   -0.34381620817932
O           0.73392977671158    1.27895871163674    2.26226371291878
H           1.59382637922620    1.02364818391134    1.74959976129135
H           0.02783568886528    1.33184282841748    1.48711369196938
H           0.42630533131324    0.43458946104836    2.81007215494588
O          -2.19534280078637   -0.76458378797444    1.77484690973808
H          -2.15293017570685   -1.48007588689546    1.10525586387977
H          -0.98954737432157   -0.87787761780322    2.79986494239019
H          -1.96073947477255    0.03799084858265    1.27975485785140
N           0.79565713051764    0.27163325286686   -3.69240641764626
H           1.39119020838151   -0.54625058591500   -3.69842631930865
H           0.75240400116121    0.64325943632746   -4.63252237207159
H          -0.13880978543896   -0.01727444333543   -3.41010247927717
H           0.86708999827249    1.21828652592056   -2.36104379194314
