    26
        -50.45627825  Gyration_radius:  2.48739083026 Dipole_moment: 3.725
 S           0.77683817574367   -0.46714922885687   -0.44802054500892
O           1.91023566163461    0.42963729973133   -1.06690978684834
O           1.00936978478904   -0.40030350930859    1.00200788542206
O          -0.47795443323206    0.20047127266925   -0.79433000618627
O           0.87372369052704   -1.80079555713253   -0.97759102796881
O          -1.89246634744301    0.91568580843986    2.79573214151053
H          -2.04074205318703    0.94336437678734    3.74296034238516
O           0.13956492283388    2.66382467840503   -0.34503589784430
H          -0.23661150604858    1.78923718838142   -0.62777368070695
H           1.02556790819627    2.68588046287864   -0.71823906119154
O          -1.77834105677422   -2.12389841689340   -0.31799509875288
H          -1.71659340990674   -1.19736127329733   -0.59446011549312
H          -0.92325417501172   -2.49142962875837   -0.57981884233073
O           0.33592874929990    1.77052936639866    2.01130494232609
H           0.71391602947440    0.85772825322946    1.65621776437480
H           0.21352343592330    2.30509899776688    1.13570485685096
H          -0.62149657768023    1.51286065463860    2.36436062303931
O          -1.17194767607935   -1.49713797693662    2.22195989135875
H          -1.73281402161520   -0.05312616330202    2.56487333469443
H          -1.60503749822435   -1.85838872325749    1.41943696161829
H          -0.26654877790483   -1.29522434340119    1.93255531992643
N           1.49582576015790   -0.57984496035429   -3.42857295706361
H           0.68882046012417   -0.21798469456838   -3.91995092593301
H           1.19957026004719   -1.38375871436342   -2.87875138193494
H           2.17665651767957   -0.88477311258250   -4.11216728093939
H           1.90426620666696    0.17685793368159   -2.03749746530276
