    26
        -50.45627834  Gyration_radius:  2.48703911196 Dipole_moment: 3.720
 S           0.68545842305741   -0.69499742225415   -0.27135623287588
O           0.78501840616392   -0.44030091924146    1.17300732624667
O           0.51538773390290   -2.08656198631700   -0.59228114173681
O          -0.33607229124774    0.16340735158448   -0.87116670044603
O           2.05335696412805   -0.18299151693348   -0.85337608992046
O          -1.88264849629574    1.75757061430252    2.36535733258970
H          -2.11116870148791    1.97445071118824    3.27127507819784
O           0.79912833876545    2.47204568165471   -0.69173694617751
H           1.69724104707231    2.23837296833858   -0.94373701415437
H           0.25648247501368    1.66587473180701   -0.89679397952977
O          -2.18901483188217   -1.70794010084048   -0.24994695141877
H          -1.88287801913172   -0.87678787015493   -0.64252018848465
H          -1.42442260121727   -2.29237124170556   -0.34253410410220
O           0.54985616424846    1.96217462242117    1.77139247722025
H           0.64262635859229    2.35727697682598    0.82134102394407
H          -0.47085354882214    1.98226313880014    2.02701984928327
H           0.73380175358563    0.94283474622823    1.60041689770230
O          -1.70110306189417   -0.81545451862077    2.23552309847138
H          -1.93510686375682    0.75273015620839    2.29554738591581
H          -2.12744298190827   -1.20170485337696    1.44110122818623
H          -0.75001079860386   -0.86740518566452    2.04323356817025
N           1.63534930709988   -1.44820458908938   -3.08779544664747
H           1.10731223734741   -2.06701489625888   -2.47579065151580
H           2.07992027202500   -0.58341481563775   -1.77253963187234
H           2.28394950331532   -2.00247538822407   -3.63172388346021
H           0.98583323196729   -1.00137638505096   -3.72191628360294
