    26
        -50.46485751  Gyration_radius:  2.56508867065 Dipole_moment: 4.109
 S          -0.41548075220921   -0.81664768252862    0.14046504876625
O           0.01504761280078   -2.20827253850374    0.08944777955482
O          -0.92743864064555   -0.36767324369122   -1.15016772076908
O          -1.56935603720592   -0.72112049397593    1.17172581818587
O           0.67291022356224    0.05417735239444    0.59495011742828
O          -2.23906371649386    3.02559847564422    0.47217399443982
H          -2.97029817797218    3.58541053309382    0.73719373640035
O           3.10822952863708   -0.83303004396718    1.04949929242374
H           3.10267182104208   -1.23711303808514    1.91867901491669
H           2.22525573886109   -0.40376778842049    0.94782306069117
O           1.36232912223992    0.17660644196286   -2.28126490199915
H           0.42880131958774    0.01579060897035   -2.00331004659264
H           1.65597063253015    0.90921436679872   -1.73324396128533
O          -0.89749860100700    1.49931695512384    2.20011954837205
H          -1.40675034065703    0.13781456994905    1.68867741135685
H          -0.05477173745801    1.32251721778125    1.75344155193766
H          -1.35978131085735    2.16923202083093    1.64415207568585
O          -3.24623925115947    0.81140735080122   -0.63574289434405
H          -2.43027077348185    0.39575363237437   -0.98372699850920
H          -3.53349824115379    0.22859139279693    0.07209565589177
H          -2.63342432850446    2.27768605837966   -0.03520938408961
N           2.25338180672564   -2.03462496612291   -1.15559707415568
H           2.64370754317146   -2.80726351575343   -1.68307972067362
H           2.03273188813807   -1.19040617105488   -1.76022131722956
H           1.31526274879174   -2.27513996080459   -0.68701068194431
H           2.86757192306959   -1.71405755455363   -0.37186940440255
