    26
        -50.45496834  Gyration_radius:  2.51177042459 Dipole_moment: 4.595
 S          -0.42448840922558    0.24144271021900   -1.25358040502916
O          -0.69035826994834    0.82137833453523   -2.66552028644796
O          -1.39636320081602   -0.78849358498167   -0.96226220497872
O           0.94764033657829   -0.25320361705480   -1.25890677188467
O          -0.55539535100066    1.36767723218641   -0.30655633383571
O           0.23244045631051   -0.40315664554002    2.95698373470248
H          -0.54197278239242   -0.22827209257405    3.49402714274062
O           2.93663214853678    0.64139635710401    0.14218041086595
H           3.44891156593764    1.25974638246472   -0.38157102377098
H           2.24821432926081    0.26554209973108   -0.46530955691371
O           1.82278541023638   -2.54721665613875   -0.11253918031919
H           1.50441749831515   -1.84294124559879   -0.70492509994518
H           2.59305643347362   -2.18738167309794    0.33322377967828
O           1.01642187882163    1.54109455449342    1.57637671806501
H           1.88276404171815    1.24018985907695    1.13899862614361
H           0.30714921652330    1.52335785427830    0.76556160240009
H           0.71452224140364    0.76009263580968    2.20710833485337
O          -0.51445319797931   -2.10472654203846    1.19052608699768
H           0.29368261729223   -2.50805714896138    0.81711345535031
H          -0.04774880863016   -1.10814990758646    2.28465255689228
H          -0.94937945117119   -1.67499981135852    0.42689171760464
N          -3.11817838970838    1.25428022623238   -1.85265252150928
H          -2.97973511099289    0.36560577083523   -1.37864058720238
H          -4.05042337311815    1.28147334763226   -2.24559334567785
H          -3.03372698215806    1.98681117006283   -1.15965422906342
H          -1.64641482731703    1.09651038028372   -2.58593262973745
