    26
        -50.45627836  Gyration_radius:  2.48693845503 Dipole_moment: 3.720
 S          -0.53867772302576    0.21192896088410   -0.83178029446929
O          -0.11622512944572    1.47017823457849   -1.67467216950069
O           0.71572761262018   -0.43354842601787   -0.44441183656214
O          -1.21210866758194    0.77253876386137    0.34855028864815
O          -1.39045208858603   -0.63491513109073   -1.62284161768047
O           0.40990727146932   -0.24325418171463    3.46395699303855
H           0.09907406675368   -0.11661756041698    4.36244347065212
O           2.13881525342697    1.61580248179508    0.20796903835241
H           1.89791478098310    2.22054742342741   -0.49986353233355
H           1.75935556131762    0.73879850866694   -0.06289899281953
O          -0.67178769469677   -2.70523853787634    0.04153709618300
H           0.13290749938633   -2.17028871937864   -0.02849721863627
H          -1.24745868504474   -2.33104042426599   -0.63916518404734
O           0.35472026302374    1.79040850031088    1.98989964226661
H          -0.37819411602895    1.45152207143378    1.31895642712290
H           0.45627718471476    0.98590175595908    2.66077624819799
H           1.19759030213569    1.80864053007388    1.39274610564338
O          -1.55160349101907   -1.26641205815608    2.13133575733452
H          -0.31638329297558   -0.75360311219027    2.98505278738738
H          -1.69923026102017   -0.52004427855871    1.52689292680461
H          -1.28623034497629   -2.00365433029044    1.54131443346655
N           0.31184389475071   -0.01296185507100   -3.76885309492914
H           0.05221711332906    0.16090018763399   -4.73121881854366
H           0.10708066483607    1.08447033916410   -2.57309283949341
H          -0.40597943234060   -0.58904676265461   -3.33390019722249
H           1.18089944799995   -0.53101238008725   -3.76023540885792
