    26
        -50.46485781  Gyration_radius:  2.56498671743 Dipole_moment: 4.110
 S          -0.14886081656453   -0.29088799165711    0.86514443369826
O           0.08327043045680    1.14427475684747    0.99218948181107
O          -1.32364987053223   -0.71036449219733    1.61920102805619
O          -0.26561663335828   -0.67161637874178   -0.54583840566016
O           1.07791430825748   -1.02813670829482    1.46143555394943
O           3.61604790910214    0.81564269690992   -0.80370188335938
H           4.57251178019168    0.85597822265569   -0.75991385434282
O          -2.43415533401560   -1.78605076403954   -1.53572173545379
H          -1.56257410371118   -1.41154699177728   -1.26291265172885
H          -2.40048539408217   -2.71659956029821   -1.30843470656058
O          -1.60965892235808    1.95280641015007   -0.82399877172189
H          -0.94002700156456    1.81351453282814   -0.11213629189990
H          -1.20344500587901    1.58702065336451   -1.61419016441506
O           2.27125961755395   -1.48691506941899   -0.73055618760703
H           1.64855973669525   -1.30014979044279    0.66655399188811
H           1.40811470521902   -1.26986377338573   -1.11633641180970
H           2.83419249712245   -0.68933826859964   -0.86684542322683
O           2.64683426225404    1.40945132544096    1.61568782999674
H           3.28547913369091    1.15125168837611    0.06255252309410
H           1.69038923951864    1.47328141333464    1.41350279114734
H           2.72708827782318    0.62808377406892    2.16908255285019
N          -3.24313094686558    0.11494497124026    0.12750049057695
H          -3.24601200276535   -0.64579010104314   -0.59070815344211
H          -2.76237957218857    0.96016610640001   -0.29823182205165
H          -4.16429441672176    0.32700074541630    0.49364839292916
H          -2.55737189705660   -0.22615740709126    0.88302738331505
