    26
        -50.46485758  Gyration_radius:  2.56492468793 Dipole_moment: 4.109
 S          -0.18199051100575    0.69134363314076   -0.58918233244896
O          -0.17683238660728    0.83062235310538   -2.04002080860617
O          -1.49308028368825    0.28263693196269   -0.09576837243143
O           0.85161513418591   -0.25000646227161   -0.14737111229764
O           0.14438594315199    2.08117789434957    0.01557030343294
O          -0.34728858255049    0.90293103835878    3.66828781528874
H          -0.41612259627633    1.40820929024151    4.47964604339541
O           2.34654979710082   -1.60946832091950   -1.83235597211558
H           3.04114128135787   -1.02024006032775   -2.13073269974945
H           1.87167788172159   -1.12365913175731   -1.11628802166064
O          -1.26441205330064   -2.28124865393991   -0.53701615245312
H          -1.50804422959953   -1.35043497141869   -0.31621589640566
H          -0.55999955833828   -2.50025559996009    0.07873857028336
O           1.62435179731482    1.26780786385286    1.90945026888789
H           0.77098836128788    1.90267000729621    0.79473810984103
H           0.99594064393644    1.10974080156057    2.65223195624781
H           1.63720632937153    0.44523370362375    1.39548400512142
O          -2.06110338289624    1.93732939782762    1.89701105750023
H          -1.06747016367629    1.22800333993188    3.07838066512884
H          -1.66331183767024    2.72894893107326    1.52507657512890
H          -2.00507293183876    1.27137676377120    1.18073300119878
N          -0.11688487129163   -1.61594512750985   -2.81564496913618
H          -0.46817955316071   -1.90886995093518   -3.72025755202141
H          -0.20827664650329   -0.55687079450425   -2.65041781143496
H          -0.64602450200769   -2.05196371771242   -2.00524830485711
H           0.90023693082060   -1.81906917878402   -2.67882837578222
