    26
        -50.45496831  Gyration_radius:  2.51150289581 Dipole_moment: 4.596
 S           0.30028069952303   -0.05720094724693   -1.31092979035840
O           0.08199892111339   -1.39539635034306   -0.77336956549999
O           0.97700167007651   -0.24119561830448   -2.69248339486855
O          -0.92366012574106    0.69623918256035   -1.46811033402934
O           1.26321465293285    0.67918755351876   -0.46675668823149
O          -0.69168071152795    0.86005548788871    2.78123115849741
H          -0.73156460243554    1.80101863183124    2.95922162877932
O           1.16840544314184   -2.42533816070816    1.34260409159923
H           1.92978689848639   -2.95111923769311    1.09169202316702
H           0.74219916040983   -2.13112839040130    0.49632289898087
O          -2.11895931925190   -2.23971796658313    0.56384787335403
H          -1.67130431405872   -2.67280303437274    1.29433242809500
H          -1.42570173185532   -2.03040179849310   -0.08709749593749
O          -2.28815042727416    0.45527623393995    0.81688730066015
H          -1.86371547174746    0.64124278335971   -0.04474570266116
H          -2.48207175863312   -0.50236194178391    0.79282972916638
H          -1.35469026426923    0.68935512382613    2.03342259889280
O           1.51315221594785    0.04982238719032    1.89725343459160
H           0.62078126424786    0.39349312780271    2.32731196070919
H           1.43562368388673   -0.96178708001642    1.84152125188374
H           1.45510823224543    0.36242648848918    0.86821195765945
N           0.84042004499433    2.34207709910721   -2.92018638275260
H          -0.05370110008882    2.20549239547023   -2.45608562483728
H           1.05294083712069    0.70534549562523   -2.99939317401536
H           0.73342762413622    3.02890306370349   -3.65569073098901
H           1.49085845897746    2.69851549289500   -2.23184147165202
