    26
        -50.45496834  Gyration_radius:  2.51158467115 Dipole_moment: 4.596
 S          -0.33543164166850   -0.03844988841988   -1.30274594305395
O          -1.20346609415351   -0.81798861041137   -0.39660999376362
O          -0.72045759275277   -0.45270057828049   -2.74516078876767
O          -0.55808806456777    1.37976434888178   -1.13078653559698
O           1.05891704660407   -0.42418380991174   -1.11746843661534
O           0.07212129351235    0.39636179861691    2.96516836266153
H          -0.71790193447528    0.73571080120829    3.38871664251188
O           2.95908307915270    1.02135794991872    0.16503945594706
H           2.36424176105071    0.59022221069718   -0.47409132991692
H           3.31939099616063    0.31519926619192    0.70638245074714
O           1.98341426604229   -2.19949477716064    0.52959517255253
H           2.10100229355634   -3.03407020767154    0.07262615257486
H           1.71592154696592   -1.53929340428787   -0.16102806681241
O           0.66439703464462    2.09227286486480    1.13626355221796
H           1.59369500730639    1.93083995881694    0.88013683109179
H           0.15384483933233    1.93997191679400    0.31576792768675
H           0.33426688738383    1.08634688806539    2.27021718834224
O          -0.25594773400497   -1.73405446912316    1.67932331305913
H          -0.72297890288043   -1.36756311001545    0.78049725125650
H           0.66909923888233   -2.01558464183590    1.36706367497587
H          -0.12254201751216   -0.88046563218778    2.27330424928920
N          -3.02595089137938    0.64346055633584   -2.26956935978956
H          -2.45521780855031    1.32000955404361   -1.76950206539325
H          -3.46232766653939    0.04358726063721   -1.58140324535850
H          -3.74832706511722    1.13119501309269   -2.78375614606573
H          -1.66075788719977   -0.12245125884711   -2.79798028383836
