    26
        -50.45496831  Gyration_radius:  2.51152786596 Dipole_moment: 4.597
 S           0.34056332162136   -0.21858042765518    1.28374990852807
O           0.53786165679773   -0.15584728832580    2.81921340935966
O           1.25169476265191   -1.18800985373495    0.71767373639972
O          -1.06121317975347   -0.55269635838298    1.05813053836336
O           0.63002240754256    1.13507858648873    0.76795866714701
O          -0.02395569314483    0.59773839077465   -2.93149375018802
H           0.80308718967520    0.86011841003000   -3.33879075248791
O          -2.01432234165654   -2.25679622544762   -0.82142495238895
H          -1.69150229827391   -1.81677133644406   -0.01499235134838
H          -2.71681631965674   -1.69826158910894   -1.16212012077114
O          -2.85896785702637    0.93351165480954   -0.07247936532562
H          -3.36421899691391    1.39629402311561    0.59814385545620
H          -2.25119318033923    0.31733708403237    0.41273189617274
O          -0.76896581110113    2.05843585534332   -1.03124346862452
H          -0.13017612619757    1.71170409903042   -0.23638395096746
H          -0.47658435200184    1.49727528634414   -1.86728119531258
H          -1.68745531098619    1.71750631768322   -0.76184428552707
O           0.44541325801409   -1.64840981732082   -1.78842206448618
H           0.84981304475462   -1.53229723604688   -0.90524809874504
H          -0.41830724526929   -2.06917527370751   -1.60895505597781
H           0.14598361180565   -0.31099491079373   -2.51544575192928
N           3.04725986870887    0.28128638495638    2.31369995218846
H           3.07129444247286    1.20297563389442    1.89689435199542
H           2.87977327906248   -0.38883703444326    1.56778310598307
H           3.94588669454836    0.09058729085752    2.73821205233628
H           1.51502519453356    0.03682834397071    2.88193371008215
