    26
        -50.45496836  Gyration_radius:  2.51162287729 Dipole_moment: 4.594
 S          -0.22109497015975   -0.27359414415920   -1.29904242629183
O          -0.52490490062596   -0.93658243808458   -2.66597988498133
O           0.31930799810575    1.05031466779394   -1.51268394145159
O          -1.47447578875518   -0.26527695841168   -0.55316483687337
O           0.76701750935693   -1.13927420348178   -0.62338039867179
O           1.18383290525543    0.74146531373110    2.64644556687642
H           2.12613064335953    0.91367398247457    2.68035253357123
O          -2.39642144847794    1.75714278209253    0.99773899675461
H          -2.19759003166052    1.11714975987115    0.29130095915573
H          -2.64211611220236    1.23423647820171    1.76440997719307
O          -1.99489086351627   -1.54099008168617    1.64243679457438
H          -2.44198891425048   -2.36440758283554    1.43948286793271
H          -1.90065236938933   -1.05604968122652    0.78205521506540
O           0.25443566170131    2.30943636741885    0.84369428366808
H          -0.71256659680801    2.36285233704760    0.97528915500961
H           0.80602282679352    1.39044257576619    1.96542277540932
H           0.35939717001736    1.93764694084543   -0.05509362182655
O           0.56058105466181   -1.53580690026893    1.79460267754649
H          -0.44782098284610   -1.60483395707937    1.89828370877813
H           0.69512256546421   -1.40761447821709    0.73351558973758
H           0.83973690410593   -0.61382582987130    2.20832956027860
N           1.94439169466114   -0.41970178958727   -3.28115434970158
H           0.36225353974782   -0.86639795657547   -3.11771876189977
H           1.75931924213692    0.43340967351532   -2.76010894528740
H           2.49347401667830   -1.02773913190263   -2.68721415338678
H           2.48349925663767   -0.19567573535723   -4.10781933109470
