    26
        -50.45496836  Gyration_radius:  2.5116320433 Dipole_moment: 4.595
 S           1.02331736911603    0.10894650520691   -0.86725256988588
O          -0.24967013597890    0.71967569428530   -1.30179170752749
O           0.94044823126588   -1.33386109721758   -0.91111722237069
O           2.10699233381623    0.59659772369150   -1.86132561222894
O           1.40294545257455    0.61944743277401    0.44523967380124
O          -2.58624426264234   -0.62493264594858    1.36976240865790
H          -3.26177727827842   -1.07653919997113    0.86140042915867
O           0.10777289361134    2.34138590629567    1.88630017040858
H           0.69191104724862    1.71515987235763    1.38530552760305
H           0.47022835310437    3.21779952812810    1.74612697619838
O           1.22559778576988   -0.72220811346005    2.79346804587394
H           1.49709013817432   -0.30427866879073    1.95692185761000
H           0.80986717031298   -0.02863622805438    3.31086481489200
O          -1.81970887894102    1.55738714399271    0.39513375048014
H          -2.19671600788029    0.67684192222767    0.82140138703392
H          -1.18003517894822    1.95656803378411    1.07621009725167
H          -1.16745370285958    1.21865372610834   -0.39255218855527
O          -0.49408114094106   -2.09795807384153    1.21027097293181
H          -1.77024292577755   -1.22596873276653    1.34524986806453
H           0.00862712769149   -1.93305397220795    0.38737501665024
H           0.11095995176307   -1.82190782647976    1.92647060820187
N           0.83109661184615   -0.76539792740390   -3.66682199553220
H           0.70334544549723   -1.41794585785558   -2.89776396984895
H           1.04356647425349   -1.28158796170074   -4.51100082566829
H          -0.04232940626736   -0.27114712404339   -3.79665574752849
H           1.79449253247181    0.17695989089956   -2.71121977567219
