    26
        -50.45496833  Gyration_radius:  2.51156041594 Dipole_moment: 4.596
 S          -0.22829156172480   -0.07508739401739   -1.32414011085488
O          -0.97098098821863   -1.26526747182426   -0.97446548456483
O           1.18468122551566   -0.19995487520273   -0.91168444277849
O          -0.22351108552035    0.09955845336539   -2.86357590887776
O          -0.80760507105998    1.14306982325577   -0.76927564951644
O           0.76141560509222   -0.52694647310097    2.84553621298128
H           1.20036635820271   -1.35600759319787    3.04227350508169
O           0.37729883358347    2.89421127217551    0.73000891933561
H           0.69402474219104    3.62038877510673    0.19017973279836
H          -0.14113100896225    2.30304753380869    0.12489789330079
O          -2.54335583914901    1.28386844115432    1.30738063863224
H          -2.10060476818502    1.24766453751180    0.44088466453677
H          -2.10799507090851    1.98639863665411    1.79574522483081
O           1.93464285880894    0.90687998411056    1.15216328266783
H           1.49162731193301    0.32599601150535    1.90426047656116
H           1.66710860375088    0.41031684625706    0.23450590994600
H           1.40981046229674    1.77601911178410    1.11203808912441
O          -1.42038982903496   -1.15981240233226    1.65777757353905
H          -1.28429276837944   -1.32082479828632    0.70244107361536
H          -0.12233175597049   -0.77463918527157    2.41478683135327
H          -2.00767461931121   -0.37941196712315    1.69338046094853
N           0.71070335136325   -2.32096776447679   -2.97126647855371
H           0.06846234712391   -2.46419566126734   -2.19631238138750
H           1.64443834892665   -2.25670627880433   -2.58659979683876
H           0.66703420310042   -3.11834252845794   -3.59292515858424
H           0.14655009451090   -0.77925502336699   -3.15801505732460
