    26
        -50.45599945  Gyration_radius:  2.47898290957 Dipole_moment: 2.528
 S          -0.75714559531235   -0.51971480640165    1.15932235044312
O           0.25238887288895   -0.92093976960925    0.06918073565364
O          -0.21473707240882   -1.21385093174560    2.39403033819557
O          -0.72213578270569    0.91537877466015    1.32886882717325
O          -2.05511610098925   -1.03567407271662    0.83390862953471
O           1.86811093824848    1.64793632006245    1.11216238916947
H           2.07531767709533    1.42275697354847    0.17330548826305
H           0.89885429579198    1.62457293310650    1.17662277700192
O          -2.46451380583879   -2.02152854218867   -1.63385255845217
H          -2.44088597761661   -1.72007144079959   -0.70489827201240
H          -2.40750837086185   -2.97762391468861   -1.60773893559155
O          -2.30634588432143    1.48967748863642   -0.74724582333282
H          -3.07980122204100    0.95154329665752   -0.55975972644350
H          -1.78433330325466    1.49599127428390    0.07495076270514
O           2.14439667636917   -0.39762000669890    2.63647493433732
H           2.15168750535264    0.40792639530096    2.02028810181123
H           2.26899911037483   -0.05473222267958    3.52466072267616
H           0.77878656467971   -0.92636472853703    2.51114799506597
O          -0.67923638851954   -0.08605372873348   -2.11436475542916
H          -0.05968224167457   -0.57382497454296   -0.85780211208748
H          -1.29708352792788   -0.82946784615060   -2.26685072280225
H          -1.25914950839294    0.64302975800943   -1.78441000432284
N           2.25868696491035    0.80925903785703   -1.45031953682534
H           2.43569019788617   -0.17384872032292   -1.28337819393089
H           3.00304175512155    1.17123412237696   -2.03297505794338
H           1.39171419314021    0.87200934132362   -1.97132837285799
