    26
        -50.45899785  Gyration_radius:  2.47154262288 Dipole_moment: 5.014
 S           0.10488578218602   -0.40354809183369   -0.97645570859216
O          -0.37864420129368   -1.58817062928609   -1.63053832077714
O           0.46113424863059    0.68463799999067   -2.05168020388545
O          -0.94061134031998    0.22038032355345   -0.13519188905914
O           1.33076473996614   -0.57813914825899   -0.21198523857773
O           0.62081409009170    0.50563169430742    3.34659992192432
H           1.49391234683643    0.68181586803734    3.70276968756576
O           2.17961704238853    1.86486574242461   -0.02050560110976
H           2.05619996352301    2.20541034321489   -0.91045558037398
H           2.05880145323733    0.88729027976531   -0.10687840727473
O          -1.43597483369816   -2.30894922202609    0.80485180610733
H          -1.68051194927919   -1.37648270027885    0.74815797644632
H          -1.09820003462857   -2.50978648984524   -0.07878860079444
O           0.04082194512641    1.92843593177887    1.35749173287385
H           0.93540106419712    2.06066614812702    0.87311628096520
H          -0.46719201923683    1.23460256130551    0.73364037225400
H           0.25152470375647    1.38800373849619    2.23633799757879
O           0.85217620049433   -1.76794022548730    2.15460408452446
H          -0.00958982885540   -2.15692081739698    1.90714199460551
H           1.21924447889531   -1.45248843614148    1.30908452237876
H           0.66185287149018   -0.42588379776422    2.95855538043378
N          -1.76695200737706    0.20989111252864   -3.29756052251003
H          -0.33536388529194    0.67547218047877   -2.66245997928719
H          -1.95660808521208    0.13300190593824   -4.28849967368174
H          -1.61932346377136   -0.72223268888215   -2.91658063509751
H          -2.57817930185062    0.61043643725730   -2.84477138663086
