    26
        -50.45899784  Gyration_radius:  2.47160627907 Dipole_moment: 5.014
 S          -0.05470230214588    0.08353314793036   -1.05700502854498
O           1.27107846818883   -0.35864872452278   -1.77390200380948
O           0.26596671762437    1.36859222104172   -0.45412244873044
O          -1.13205188406282    0.10900342788326   -2.00766007677129
O          -0.27781190803337   -0.93504630007833   -0.00686762455519
O          -0.02383623207240    0.97104074762110    3.30131101420026
H           0.49450585960483    1.70256359155587    3.64239421833000
O           2.67411357155934    0.95250061874135    0.41380871990188
H           3.09299252481070    0.50062297130266   -0.32345568965366
H           1.82670627285059    1.30335484647823    0.04434640591115
O          -2.83082355105468    0.05622371785370    0.15550294420848
H          -2.17846873698479   -0.61362637634683    0.39692059699173
H          -2.61829585425098    0.25926025869172   -0.76586142089332
O          -1.50139695827003    2.02045438340081    1.46857694450125
H          -0.85792625006195    2.00738437585030    0.73718974657061
H          -2.21389104000716    1.42354801516375    1.16647810272485
H          -0.68010609552849    1.37583524997488    2.64905613319423
O           1.29818024330128   -0.61692094238391    1.87028011305106
H           0.76292866801163    0.00342011792485    2.53176066455067
H           0.60502832220982   -0.84283286253911    1.09747166856213
H           1.98332489215061   -0.01819910623254    1.39652522075785
N           0.00394046725674   -2.28229091365696   -2.97214333278235
H          -0.77282226743165   -1.62885618582473   -2.89827301700272
H          -0.19218608758856   -3.07384952705573   -2.37339425240357
H           0.06772496033618   -2.60938207569774   -3.92753753538606
H           0.98782819959745   -1.15768469713127   -2.31140005294315
