    26
        -50.45899774  Gyration_radius:  2.47176215355 Dipole_moment: 5.013
 S          -0.32489461276420    0.18302173772806   -0.99415897220668
O          -1.29090624991278    1.06533600191478   -1.58866141030915
O          -0.05136784785348   -1.02643923511298   -1.95838871591647
O           0.98614792292434    0.77070225678639   -0.76284033987189
O          -0.83945524704205   -0.43074033364638    0.25016636362835
O           1.76557792329976    0.40428897347882    2.92611850494937
H           2.71994075466661    0.49301680651618    2.96321861058783
O           2.47515078505255   -1.34149036123784   -0.54696865982834
H           2.17098414935541   -1.89326979953232   -1.27238544104824
H           2.07512008192681   -0.45426705690511   -0.72187433276119
O          -1.66662842657659    2.09431499705758    0.93456010631942
H          -1.65793981460158    1.14414871320298    1.10660781060153
H          -1.69531990825352    2.15101263194635   -0.03045670427343
O           0.98904327982218    2.34615930562541    1.41944960096210
H           1.43071628545058    1.21181674452337    2.42053934788419
H           1.13723831862402    1.92685316072731    0.55260945742204
H           0.02255582577295    2.48784575018696    1.45053725623400
O           0.98665079257583   -1.52046309829301    1.50964679114100
H           0.13976496242201   -1.10377470957862    1.02176719458687
H           1.68121630487718   -1.57601172492188    0.75680670834695
H           1.31305924238464   -0.76341933890502    2.16450864163608
N          -2.60129337052598   -1.30602560049773   -2.36200340038560
H          -3.10955666274372   -1.49531053072344   -3.21623730883555
H          -0.97237810965967   -1.31678222292299   -2.23200555052780
H          -2.59567307628436   -0.30173632019153   -2.19720736735107
H          -3.08775329294825   -1.74878673722778   -1.59334819098109
