    26
        -50.46893898  Gyration_radius:  2.4045565967 Dipole_moment: 6.284
 S           1.33586875899847   -1.23668517212882    0.02497001753232
O           0.14898839569826   -1.27623209991273    0.91536679997043
O           1.55729446823780   -2.51048672820318   -0.60707855114947
O           0.91777763710342   -0.28661238871664   -1.16474704308653
O           2.45977411592513   -0.63740293381930    0.70463220392345
O          -1.93793214397036    1.51416616649008   -0.05137940016254
H          -2.66622182249714    2.11680571784333    0.10279899038346
O           1.80603892778437    1.57770060672473    1.87210613185520
H           2.60916464015194    1.94916202141168    2.24013686882526
H           2.07254813263983    0.69820444625963    1.48563210051002
O          -0.19584657145580   -2.36026019385279   -2.53665396544803
H           0.25550116610707   -1.76803057182913   -3.14277705232762
H           0.48258143050093   -2.56014535528740   -1.84063998087884
O           0.73121583964233    2.20198801723720   -0.52503962583443
H           1.11631374215529    2.17899312836966    0.37328935470853
H           0.94978262286497    0.68734625129204   -0.93127150582404
H          -0.23394408358012    2.17774809801537   -0.42540929134124
O          -0.82243147618117    0.81864783120232    2.19687468795430
H          -0.49565226483521   -0.05615502842087    1.89721672403282
H          -0.00676353512126    1.31530029435728    2.35819954301367
H          -1.57760241347833    1.27038404158938    0.85226669736184
N          -1.74208957331413   -1.15884955496522   -0.77660459144993
H          -1.24080127756175   -1.55454884631797   -1.62749032476215
H          -2.59882327741741   -1.66670677242913   -0.58349900471168
H          -1.01186446385197   -1.29239220290743    0.01764550987386
H          -1.91287699454585   -0.14193875200163   -0.82854530296948
