    26
        -50.45496836  Gyration_radius:  2.51171863406 Dipole_moment: 4.596
 S          -0.17313433785722   -0.50461998513549   -1.23532776549559
O          -1.11396904143226   -1.38525337914427   -0.57990923625932
O           1.20055746266068   -0.70017737713862   -0.78571288123776
O          -0.18198469523096   -0.77844260631526   -2.76031570967818
O          -0.56917320726874    0.90786277440461   -1.06097349017427
O          -0.35392806124486    1.20473700060851    2.71706649218611
H          -1.23219373603506    1.49882053028319    2.96380899745110
O           2.79606779575017    1.09535439441398    0.18867882646934
H           3.36328258981644    1.43487760151159   -0.50564958898995
H           2.27317536962774    0.35558625050297   -0.21583282532902
O           1.97169384946106   -1.90922785176190    1.51365821999264
H           2.60839211853050   -1.25127471631847    1.80215419379295
H           1.73573537056483   -1.66908001136503    0.59993148510734
O           0.56761819681900    2.27161573465871    0.64023774726870
H           0.19454169206381    1.88403555662651    1.53998236270450
H           1.52313205147738    1.93655925824037    0.55596054949923
H           0.04269816411346    1.72708497878538   -0.12705574244648
O          -0.60723568535305   -1.25542073251486    2.04123666510377
H           0.28525421848526   -1.65347653473610    2.05625212225078
H          -0.44252800378871    0.22055331152257    2.49100050333388
H          -0.90365267825991   -1.35302173576616    1.11409368390917
N          -2.74793557281732   -0.39612601233698   -2.64913334174895
H          -3.57976837022115   -0.72600422737914   -3.12182969622923
H          -2.85547576989338    0.58964441392625   -2.44746013257862
H          -2.65108996018111   -0.88251196032296   -1.76165579872664
H          -1.15007973981903   -0.66209467541381   -2.97320564019729
