    26
        -50.46893890  Gyration_radius:  2.40465493791 Dipole_moment: 6.282
 S           0.19573381869876    0.11335114016506   -1.80669985300224
O          -0.46140700140743    1.15121255255882   -0.97348299580715
O           1.17110001368902    0.69403068184941   -2.69129384944491
O           1.05719227411717   -0.73495123088517   -0.79136079130624
O          -0.78964561156540   -0.75988110272156   -2.39896094814534
O          -0.17911003728217    0.03241928396879    2.45358451937530
H          -0.41965416286773    0.07898440983406    3.37951457606475
O           3.16809790104660    0.97190198820400   -1.03228155809318
H           2.48850918453527    0.95028148169360   -1.75512610071673
H           3.48260537742320    0.06649776695590   -0.97682978402124
O          -2.51317251453419   -1.58420310988424   -0.65316275447616
H          -3.08929796172653   -2.20651968738420   -1.09957443729519
H          -1.90190524520287   -1.23456681367527   -1.35879416959410
O          -2.20892284835510    0.64286519858030    0.94024606208579
H          -2.63380848889149   -0.14894222414788    0.57900315370753
H          -0.99437015582236    0.30423865244544    1.93662320819027
H          -1.68854404337938    0.98267316161637    0.18155538014279
O          -0.32594133015244   -2.21669814904643    0.79860985412498
H           0.51744361638829   -1.38326425925882   -0.25052839803013
H          -0.27856782309827   -1.59069441960550    1.53889617423164
H          -1.21180720573386   -2.12287474876148    0.39586367174637
N           1.34322492420012    1.61434137364111    0.75323260171950
H           0.54318025556360    1.54737111289316    0.02008274394310
H           1.44505335771180    2.55960642778321    1.10721979643284
H           1.08490011286325    0.95782007494814    1.50691837828465
H           2.19911358378205    1.31500042823452    0.19674552988165
