    26
        -50.46050462  Gyration_radius:  2.59215207715 Dipole_moment: 4.569
 S           0.78893791256183    0.73061311106928   -0.67537768491243
O          -0.30331846635678    1.06738670010484   -1.55246344770816
O           2.01322482511978    1.49657595376922   -0.94350417857891
O           0.42743452739147    1.12913962859630    0.78979243571562
O           1.06750097316825   -0.70790464574319   -0.66201453403577
O          -3.81808369072943    0.57958802340221    0.13499389707103
H          -4.49485203888101   -0.08294449060926    0.28508156712008
O           2.98065483731011   -1.45158199512801    0.91639600432153
H           2.19249763751570   -1.26978317942547    0.33673189973141
H           3.57576693143251   -1.98033360640509    0.38222681115553
O          -1.24358043870306   -2.03939790032304   -0.41294449927931
H          -0.34313724097575   -1.69938337061134   -0.57704165419639
H          -1.79028969001321   -1.66748824147606   -1.11803573953107
O          -2.50596280315022   -0.18077390397750   -2.12408517775200
H          -2.75843171608206    0.10022040441951   -3.00479568340529
H          -1.66449396246610    0.30151802347262   -1.92250856033037
H          -3.41463984766618    0.36914032757228   -0.73129433134373
O          -1.59650068168761   -0.19568449828517    1.46402082131592
H          -1.49900969577369   -1.01113945096880    0.91327308121944
H          -0.42052598441478    0.61381839969046    1.08498871712433
H          -2.40369618376187    0.24327044761955    1.11967192217828
N           3.08020573478718    1.14686331745970    1.29539763250201
H           2.69943723923388    1.38410112458090    0.26159302038459
H           3.91780475641349    1.65856596580102    1.55115229210831
H           2.29348062279153    1.36722408561867    1.90539138461548
H           3.21957643294462    0.09838974974758    1.28335400452109
