    26
        -50.46893899  Gyration_radius:  2.40461707391 Dipole_moment: 6.284
 S           0.93176787172545   -0.49136139830580   -1.48505757321197
O           0.63870219669708   -1.26498646525099   -2.66260160869902
O           2.31399867743629   -0.14293661329683   -1.25639150055921
O           0.07011991050514    0.71451890934201   -1.40441665373190
O           0.45339094176755   -1.41085737682014   -0.29397745672126
O          -1.42693371281944    0.67541346710164    1.88688883191617
H          -1.90585527073979    1.09640851826864    2.60155342635069
O           2.59409507916050    1.34999354158750    0.83883156685438
H           3.53453239590677    1.48456870361418    0.96481976290544
H           2.51082384054268    0.82798925770712   -0.00642455198637
O          -1.48517679899897   -2.54149513091906   -1.83828466985997
H          -1.08579201586810   -3.20517557553187   -1.27092615805533
H          -0.71345626548560   -2.10733621465666   -2.28621897407389
O           0.05767571741642    2.40394244071021    0.62555766010588
H           0.05533838444394    1.94611755658226   -0.24173575634428
H          -0.90279075573969    1.40029639318239    1.43337544110930
H           0.98397127182928    2.34672823704464    0.90258831631969
O           1.08763443497861   -0.53851081335869    2.04563820301734
H           1.68932410978063    0.19207016615209    1.80074092621192
H           0.21519323221860   -0.14857325217788    2.21551521556114
H           0.79405343700912   -1.11775330148972    0.60162716712136
N          -2.12358028998291   -0.29698957928613   -0.61882276745026
H          -1.99631416003384   -1.29081212322228   -0.97644117177693
H          -2.99189302344865    0.10729592709509   -0.95326064721984
H          -2.03937945989104   -0.20822539796120    0.40636994490214
H          -1.25944973841007    0.21967014389141   -1.02894698268462
