    26
        -50.45496832  Gyration_radius:  2.51167397781 Dipole_moment: 4.597
 S           0.53177195315288   -0.26282014736093   -1.20769547647772
O           1.38973843919534   -0.29861372748811   -2.49732839540675
O          -0.33789731988229   -1.41719004734523   -1.17259157644061
O           1.47853577594337   -0.28598899809813   -0.07388227080855
O          -0.19672705404943    1.00062407123107   -1.22788941521351
O          -0.95333815362223   -0.10725822388599    2.83522682812945
H          -0.73677467649225   -0.88645186001006    3.34969032638122
O           0.05806431965990    2.97721976280452    0.42949429239471
H           0.65481612671108    3.63187908331634    0.06287407603922
H          -0.07257676275743    2.29284023150308   -0.27682426046405
O          -2.77737395055143    1.36879611698350   -0.48824395899887
H          -1.93381566030468    1.22874431106270   -0.95415273790309
H          -2.64841342708237    2.14517040019976    0.06137833749238
O           1.02696306768522    1.11568881338160    1.89528439664519
H           0.65442122452163    1.95452050107270    1.45924495537643
H           0.21570808478757    0.63037009050690    2.34829444862973
H           1.28239105524075    0.48986114884771    1.05632285697359
O          -2.15190528322590   -0.96772310527274    0.73850197161032
H          -1.46590451655038   -0.44035832267787    2.02659785216953
H          -2.62356679903731   -0.20880016463137    0.34243856330986
H          -1.52223373586251   -1.25333822225776    0.04649848607788
N           2.11049022456611   -2.68066308254978   -1.75638292747998
H           2.68085899155540   -2.53525831675668   -0.93330457872406
H           2.37749074046349   -3.55557782805612   -2.18924111426794
H           1.14201206422575   -2.73844537117534   -1.45264302449711
H           1.81726528165500   -1.19722709341839   -2.42166765455270
