    26
        -50.46893902  Gyration_radius:  2.40461824886 Dipole_moment: 6.280
 S           0.10077402767702   -0.58652162605062   -1.72085262561452
O          -0.46436321384325    0.72640437395285   -1.32058264941337
O          -0.78580536476003   -1.28682667569801   -2.61218705084883
O           1.47379678578519   -0.43987690321224   -2.14230338868268
O           0.08135797298207   -1.45431807134370   -0.40199182380808
O          -0.33523393817761    0.82899706719528    2.29181470918522
H          -0.38575514742168    1.29797081591359    3.12542722863695
O           2.85176005542462    0.95593190511421   -0.45373499713748
H           3.75886777916026    0.95589625600531   -0.76282374927252
H           2.33299277119244    0.46813935401321   -1.15136091565026
O          -2.47434220489293   -2.26917013826579   -0.87952978632868
H          -1.93056468780979   -1.93833842196041   -1.64089893767545
H          -1.95874756153880   -2.99442257036768   -0.51904793179753
O           0.65170609571958    2.35915383477642    0.42969618499718
H           0.20337169354605    1.92406411498819   -0.32630597299143
H           0.02486324240153    1.48285547310712    1.62205546267886
H           1.58762468172811    2.16688948642497    0.27114401479194
O           1.79889470743962   -0.72845546622867    1.37567643552572
H           0.82022525952589   -1.23064933717852    0.23690713007806
H           2.32173486487199   -0.08422249467522    0.85865751850119
H           1.15363126338700   -0.22371243994666    1.89627979459312
N          -2.19573920572697    0.01643865873300    0.39707405023051
H          -2.37596693848043   -0.97766669619864    0.06364113009517
H          -3.05862981957531    0.54573250737326    0.46383178306302
H          -1.65424831790314    0.07049483534313    1.27439676388583
H          -1.54220480070883    0.41521216818674   -0.37498238704310
