    26
        -50.46050463  Gyration_radius:  2.59210566089 Dipole_moment: 4.565
 S           0.18663768320845   -0.33396940590921   -1.21099902785887
O           0.62900260253383   -0.15830957247027   -2.60060774250978
O          -0.74967326841365   -1.41525299384174   -1.03809767374631
O           1.33620940116390   -0.44490543147407   -0.30915154565476
O          -0.51124602870655    1.02234832239363   -0.88021234183911
O          -3.24567187798915   -0.80717000225956    1.93490134086557
H          -3.33440236671042   -0.93554439489233    2.88101109202650
O           3.07312105975417    1.46735116399265   -0.48547819242123
H           2.43131573098144    0.72970399627240   -0.30068483728158
H           3.92458166281171    1.04312981323243   -0.60420295520720
O           0.45542288800734   -1.00524590553344    2.15787183435265
H           0.92342332005988   -0.87547160308163    1.31084720457695
H          -0.11639814469783   -1.77228115215591    2.01975064633439
O          -1.23009094413110    0.94534054458539    1.52459982079277
H          -0.83995639904353    1.00769063077592    0.10139972373954
H          -2.08124615947073    0.46224810067189    1.59564615856259
H          -0.56012088817193    0.33360095540480    1.91794324639116
O          -1.51099626524598   -2.71811850642247    1.07341951250725
H          -1.78313708697882   -3.58704423574120    0.77462508136158
H          -1.22182204008323   -2.23552341340665    0.25804804425825
H          -2.70812784425348   -1.55539710569410    1.60510479675226
N           1.40067352675816    2.21331059997367   -2.37015109641766
H           2.19357412298443    2.09456437238077   -1.68017197352185
H           1.07835836539373    1.15829414853275   -2.60094379776218
H           0.59946058025885    2.61569079441469   -1.88462488812722
H           1.66110837994024    2.75096029026932   -3.18984242013921
