    26
        -50.45929211  Gyration_radius:  2.49786069638 Dipole_moment: 7.209
 S          -0.47774811110422    0.26453849350359   -0.92573282517078
O          -0.78920917181450    1.61521618529011   -1.37977902108743
O          -1.64328230603276   -0.55176869183225   -0.65753077148199
O           0.48670635143549   -0.39018504778223   -1.81547140401897
O           0.27114030436437    0.49176850751183    0.43437211535813
O          -1.67526907102092   -1.68734571870799    2.83300904388509
H          -2.27649726220549   -2.35019891626529    2.48805388005082
O          -0.26352149518577   -2.83082186743920   -0.75009615480058
H          -1.00477699594113   -2.19837692041951   -0.74377980595980
H           0.34164801861991   -2.45065997282966   -1.39732228844762
O           2.51248360966408    1.99400924762653    0.17092466146909
H           1.75266697451614    1.41243623939391    0.37588786043595
H           2.61470728629329    2.58286028471886    0.92001242729781
O           0.61675738141755   -1.72325457253475    1.49567420343176
H           0.38971523675679   -2.32183170083969    0.74311995772389
H           0.45891170047372   -0.44775930218220    0.91256198385215
H          -0.15103791985428   -1.77434370986250    2.11853395231210
O          -2.46581927250280    0.57426414513079    1.60682122374951
H          -1.82479594954455    1.28474061972876    1.67306232533562
H          -2.32939628169361    0.18404022893796    0.72096521338399
H          -2.02126353990344   -0.82280185403156    2.51793151192037
N           1.54078087325461    1.86728113476426   -2.30720322833389
H           0.52757030927116    2.09226211088086   -2.02103063004386
H           1.41241625448784    0.81071746023824   -2.31352661244665
H           1.83969263497454    2.26266447617404   -3.19137077477953
H           2.15742044127371    2.11254915080848   -1.50808684362707
