    26
        -50.45929198  Gyration_radius:  2.49758452191 Dipole_moment: 7.214
 S          -0.07501896991388    0.23454495459748   -1.04390963867147
O           1.33378641219759    0.00391081706432   -1.37893290457584
O          -0.11723840537716    0.48739067019414    0.50399950592432
O          -0.55947115043138    1.48700852583933   -1.61334631396025
O          -0.91762040311786   -0.90812304312497   -1.32848165281609
O          -2.13493774673589   -2.44870257897809    1.76607944426097
H          -2.27960809567286   -3.20265538806236    1.19128348570681
O           0.99744021296037   -2.66646542577184   -0.73887516211761
H           0.17320470967363   -2.27884785977772   -1.08514772733646
H           1.67267540818082   -2.04773051699862   -1.04030852219804
O           1.41471487370983    2.58788707563705    1.27527854889841
H           0.98832662598496    3.07741777252842    1.98013817879041
H           0.86694175462435    1.79255434074088    1.11790455148547
O          -2.96296087337004   -0.36228159452500    0.28088836811533
H          -2.67384934631477    0.48546022131316    0.62401954009624
H          -2.33451138937294   -0.58010050034926   -0.43546494401445
H          -2.55653028015832   -1.68374934399272    1.31489667109234
O           0.39469730459754   -1.65683238004942    1.64090199951104
H           0.12218321171061   -0.41388527914378    1.03018313532499
H          -0.51086355571240   -2.00495053940067    1.83852543681028
H           0.72499940682610   -2.19167294516219    0.87863953793448
N           1.73000846002268    2.51223986457392   -1.37006222560944
H           2.24744537613916    3.08733208624021   -2.02499561518591
H           1.81955804105308    2.81796296685626   -0.38153112014031
H           0.68108896230223    2.39928678176935   -1.58529543749375
H           1.95553945619244    1.47300130798208   -1.41638712983091
