    26
        -50.46050464  Gyration_radius:  2.59237901493 Dipole_moment: 4.576
 S          -0.71033761152498   -1.04776881988186    0.08473854218208
O          -1.93926589895139   -1.82683860403086    0.28580084010314
O          -0.76083175427809   -0.31475501803016   -1.18300924382578
O          -0.77005805507532    0.02063570411557    1.22118433381775
O           0.49321102243432   -1.82850461192594    0.21723257156348
O           3.54619108952259    0.27414136945305    1.51333682885109
H           4.26135591847636    0.83219688512155    1.20252965053144
O          -2.85468861822644    1.17050215459998   -1.52136038309719
H          -3.21881532851922    0.92625520667269   -2.37386557614405
H          -1.98961724624374    0.68367994002023   -1.45172684123364
O           1.60302462440140    0.87733178215737   -1.59243498927289
H           2.23646859219143    0.15489891050849   -1.48626184224809
H           0.72521008806544    0.45045218809082   -1.61507402852189
O           1.21942898236745    1.52952782054534    0.95209887199034
H           0.05420365321731    0.64244121673037    1.14815259862783
H           2.00782806294720    1.10681039663371    1.35519679306466
H           1.37978664589491    1.48329933945209   -0.02254476677456
O           2.93232241789927   -1.38693414154050   -0.55291864643831
H           3.39451445358598   -0.39342720335729    0.81421923407475
H           3.33777404148584   -2.24532171150480   -0.68351275970491
H           2.00374758865768   -1.57305500935627   -0.26243801382706
N          -3.43781985229283    0.11011016028293    0.81125933560054
H          -3.40820281493335    0.63437368076595   -0.10698105531741
H          -2.86496513966060   -0.83788401849630    0.60368396613695
H          -2.86017439888244    0.60434219879717    1.49074611869249
H          -4.38029046230523   -0.04650981591529    1.15194847114688
