    26
        -50.45929209  Gyration_radius:  2.49777326292 Dipole_moment: 7.209
 S           0.62056492000980    0.83507733608181   -0.26747629155917
O           0.18457331724511    2.05004431986440   -0.94669800847615
O          -0.67621133221981   -0.04670221962179   -0.21156417802738
O           1.58600364611248    0.08578855403893   -1.07798496628856
O           1.06951557123966    1.04772291026559    1.09266225125524
O          -0.93996809160098   -0.90639687436142    3.45986059226792
H          -0.18366699689181   -0.76761198585110    4.03310096357270
O           2.35852341716375   -1.28316294609249    1.19893922936404
H           2.54693301100824   -1.23429363010531    0.25459631009368
H           2.06378407519336   -0.37907741037686    1.41176961668632
O          -1.69425965625089   -0.58984605023327   -2.66492203204251
H          -1.39457873409299   -0.49275909971974   -1.73848494059914
H          -2.65218956631753   -0.57391277580913   -2.64449972469213
O          -1.27315439204647    1.48580222038004    2.27235794292113
H          -1.84696425352731    1.45035757745141    1.50456051046592
H          -1.18087221254382   -0.01772750887895    3.11533377497996
H          -0.36281653138955    1.47507751368176    1.91625424562957
O          -0.18566894169103   -2.03921492874841    1.18170042733788
H          -0.49551673477877   -0.93094700271692    0.36474920065949
H           0.79766070140342   -1.97322041162684    1.25175445705745
H          -0.53538556558694   -1.76244428531799    2.06558043429399
N           0.43948588173680    0.91971200422570   -3.18492028910583
H          -0.41463931222465    0.34716971830059   -3.33171469469797
H           0.84385994113219    1.27910775902357   -4.04208072236463
H           0.21387231631484    1.65997991071239   -2.43633498129549
H           1.11111553261298    0.36147726544094   -2.57653914743948
