    26
        -50.46893905  Gyration_radius:  2.40450648076 Dipole_moment: 6.282
 S           0.78742570671219   -1.16198417851471   -1.15896333104908
O           0.36348220807675   -1.87345990820768   -2.33585590830607
O          -0.34267884923175   -1.46669713345759   -0.09938646739380
O           2.05623768117735   -1.54153676166822   -0.58428174928128
O           0.72792447383489    0.30651876391953   -1.36681160446515
O          -1.17022237907688    1.64265859948425    1.40693447257056
H          -1.47266972119223    2.37090545840973    1.95053446451546
O           2.67944605221579   -0.05513233559102    1.44057824526613
H           3.49347976545517   -0.40431940329696    1.80636392004872
H           2.49619625204599   -0.60299283691254    0.62816435487591
O          -2.22641971269134   -1.69389238803051   -2.05429354148297
H          -2.37707822678203   -2.35150041773051   -1.37105928540991
H          -1.27175816339133   -1.81079452036082   -2.29860208826155
O           1.23211415445079    2.09597245393727    0.50915199975642
H           1.89928987408651    1.62078527864554    1.02597971341326
H           1.15450390102003    1.55611149741730   -0.30591651602405
H          -0.25820246406339    1.89730985472660    1.07658644299353
O           0.18189694299059   -0.64193397056438    2.28407561854607
H          -0.08403507496012   -1.23648517547507    0.84093086047936
H           1.11899288635951   -0.38496375607894    2.17680617024912
H          -0.34970223077522    0.16559335792035    2.19720157845322
N          -1.76624158019346    0.73558272248917   -1.14971403254160
H          -0.69888168474336    0.64736370980350   -1.33714611321765
H          -2.18515022095707    1.46240830621378   -1.72021484115061
H          -2.13313509633487   -0.22656930950429   -1.41705574021321
H          -1.85481448405032    0.95105209242275   -0.14400663239048
