    26
        -50.46050464  Gyration_radius:  2.59226776597 Dipole_moment: 4.572
 S           0.26617315551706    0.07176500290657   -1.23892837920180
O           0.00588226140549   -0.05077146311540   -2.67936573117337
O           0.37150459810243   -1.24983505576153   -0.61498064755436
O           1.39289297008254    0.91411051207244   -0.92814385513563
O          -1.04229935287344    0.72206252512162   -0.68973932723979
O           1.03952574193488    2.71814568134467    2.54310486431015
H           1.21606594485503    2.59281063216509    3.47721340151307
O           1.08739573638745   -0.94638954305083    1.94854388371339
H           1.87094007014620   -0.38286801203656    1.89426584904618
H           0.89700320807711   -1.21390824422120    1.02904762857645
O          -1.62021889771391   -2.84488367039587   -1.05515012531812
H          -1.23927467485035   -3.66310453936865   -1.37820228610325
H          -0.84769427905789   -2.28252467551270   -0.77751478809528
O           2.82985081404536    1.15327327071227    1.22014622184152
H           1.74705796471482    2.24212157853557    2.06324846621940
H           2.29599248474542    1.06504793888919    0.39041852802584
H           3.69432359339305    1.45610335163055    0.93863008158696
O          -0.81661306427275    0.89787509161788    1.80520847422740
H          -0.21627093065822    0.13914467274443    2.00942066407853
H          -0.29433981166587    1.69733453907434    2.03093494276971
H          -0.96538086281816    0.82888904690000    0.33701967205888
N          -2.38288978178196   -0.77962003464477   -2.48990099688067
H          -1.32739849569362   -0.44784528236989   -2.70390865597142
H          -2.26518565945212   -1.70704774831298   -1.99503054979614
H          -2.72749430615972   -0.09145261347368   -1.82110896936021
H          -2.96954840637832   -0.83843297143731   -3.31522834613519
