    26
        -50.45691229  Gyration_radius:  2.48231462134 Dipole_moment: 6.877
 S           1.65856344186464   -0.68569622078550   -0.75758001486244
O           1.11703376405304   -1.96694174030813   -0.32869416012746
O           2.83546868875512   -0.72094745350100   -1.55326500237461
O           0.57541169062803    0.12980307580689   -1.37438266298974
O           2.00192744409013    0.12300208473287    0.57621453369580
O          -2.11076421631023    0.43385494088078    0.99486104370652
H          -2.98158778021530    0.34331652596682    1.38222027959421
O           2.02401998748291    2.77595351575935    1.07455514247736
H           2.74948476817615    3.22287037218486    0.63472801564798
H           2.22521370368447    1.82080846743104    1.03155664275379
O          -1.15352376182782   -3.19979439864535   -0.90734243622872
H          -0.27001572623441   -2.82643660657390   -0.69736411210183
H          -1.00475018106283   -3.86064469325520   -1.58448279653069
O          -1.96744707429109   -0.67499552582213   -1.31850594329537
H          -1.04921286947274   -0.40362519868850   -1.52447572863046
H          -1.90376440655853   -1.64497562074689   -1.20386463902289
H          -2.14493837523689   -0.02632887008054    0.09321296241812
O           0.09292598925943   -0.96212862521624    1.89406523837403
H          -0.74929415709606   -0.52551599723245    1.67246087365512
H           0.23479842312109   -1.66192356332324    1.23222441672253
H           1.33052127179682   -0.24327688190618    1.21743510038061
N          -0.31507998877329    2.14351334227271   -0.10054838268910
H          -0.74055919092155    2.82729557799751   -0.71742900922649
H           0.10360554349747    1.31572574686635   -0.69024671980743
H           0.47426112238260    2.55591817363488    0.44319181971621
H          -1.03229812079139    1.71116957255163    0.51145552874482
