    26
        -50.46893908  Gyration_radius:  2.40451131507 Dipole_moment: 6.282
 S           0.68013644288814   -1.11363344731765   -1.26983721104987
O          -0.69902226448484   -0.56540929493374   -1.29542212207838
O           1.33699755673584   -0.93338731483986   -2.53751655016370
O           1.47427823282268   -0.16530865712542   -0.28870182085775
O           0.68627853181245   -2.44479800336533   -0.71118303427672
O          -0.97088920489303    1.63130099026596    1.56390095590869
H          -1.48248527160698    2.15130690840097    2.18455385662521
O           2.06654988647288    1.56363368957688   -2.30829125100684
H           2.81569802981972    1.47561002939572   -1.71412327171592
H           1.82757940980049    0.62854820473512   -2.53893127678081
O          -0.65805232023614   -2.56420298030699    1.49709908232090
H          -0.55826500919412   -3.45363504005249    1.83963241676959
H          -0.18622781079823   -2.56275093230613    0.61895286551968
O          -2.30582986354012   -0.47003824750250    0.79875483990550
H          -1.55361167124133    0.86093373097456    1.29422834949659
H          -1.87780908826434   -0.56513853447937   -0.07843013305150
H          -2.01775696969639   -1.26464321989759    1.27177633677758
O           0.82552839534444   -0.41698469186878    2.19177342947457
H           0.26058440480692   -1.21330382277828    2.14356168061407
H           1.28986582863803   -0.34488432024631    0.67965432891528
H           0.23643942397902    0.35452617344398    2.18899591120761
N          -0.24491432988242    1.92602507811463   -1.10071767377738
H           0.74312335063031    1.95530419756245   -1.49420206861035
H          -0.54009399835430    0.89264554865913   -1.26619201306505
H          -0.29130696338651    2.06785903565372   -0.07923188726213
H          -0.85679473835083    2.57042491024401   -1.59010373980280
