    26
        -50.46893908  Gyration_radius:  2.4044510522 Dipole_moment: 6.281
 S           1.61964752641965   -0.46968487916841   -0.68616351683940
O           0.74980399577439    0.58865746458923   -1.25764199262075
O           2.06854377671936   -1.38247468209684   -1.70419581118187
O           2.62947076004998    0.11010039926203    0.16721263628173
O           0.65839079155496   -1.34197328738117    0.21270709847900
O          -2.26578513410493    0.60854149475443    0.73735671596401
H          -3.08668142077823    1.01133103606524    1.02219255243527
O           1.61563139957055    1.80938681027749    1.83536660142389
H           2.32703177391089    2.10084639426338    2.40750194234496
H           2.04263425778938    1.20747276327493    1.16522749310276
O          -0.04814566417884   -2.89790020339080   -1.90800688379274
H           0.80329120557912   -2.39023817841373   -1.95450129678820
H           0.03967274439923   -3.43310425184720   -1.11565250066851
O          -0.49153708137625    2.42960152271365    0.17245698569767
H           0.00976029119073    1.90160965720537   -0.48459932018732
H          -1.64482246023876    1.36327387568544    0.51265100042050
H           0.14350322445728    2.54319194779189    0.89485486278416
O          -0.13469046369337   -0.17655779013662    2.36883452730982
H           0.44080139298338   -0.92065572850501    1.09545914567037
H           0.43944314199656    0.61465197362883    2.35909803141505
H          -0.99201115720522    0.08520593014195    1.99646035394067
N          -1.42762821265149   -0.68045887598415   -1.57544550738198
H          -1.04434892136908   -1.67017151475260   -1.65166331599576
H          -1.91308846552210   -0.48872191782700   -0.68471303663693
H          -0.52609437712434   -0.07331706173357   -1.55369210949657
H          -2.01279290454335   -0.44861289827374   -2.37110464594211
