    26
        -50.46893906  Gyration_radius:  2.4044848591 Dipole_moment: 6.281
 S           0.93333451199910   -0.53088022126407   -1.46990796794269
O           0.14444717765426    0.72424309740704   -1.39487930479570
O           0.62171074515007   -1.27286727839010   -2.66294074433732
O           2.32824206898363   -0.26937519706299   -1.20543847552503
O           0.37219089708431   -1.43181044332104   -0.30107688411108
O          -1.42363973782180    0.73824840762655    1.86404035208136
H          -1.89008956926368    1.17871610911083    2.57514788259616
O           2.65064034779080    1.18200955992356    0.91291383683112
H           3.59436414668550    1.25997341247822    1.06005886402772
H           2.55521240534251    0.67473429371976    0.06006809925183
O          -1.59480904739318   -2.42535248142562   -1.90249942508292
H          -1.24923022816758   -3.11731434791995   -1.33352753401070
H          -0.78806642132220   -2.03435366932809   -2.32800434520797
O           0.18792607591397    2.38881893356825    0.65519492706382
H           1.10257159323223    2.27233969898835    0.95181753164565
H           0.17749868006419    1.94164496080728   -0.21757499003425
H          -0.84790828254692    1.43549182333596    1.43027530189269
O           1.00782237857898   -0.62747933140576    2.06238574156162
H           1.65746805653676    0.06844433966150    1.84054791853254
H           0.15650654480595   -0.18764095350508    2.21744162361781
H           0.71150808526543   -1.17092473527425    0.60493527098397
N          -2.12355684128821   -0.16006898254177   -0.66935084808595
H          -2.95773434615856    0.30104748197046   -1.01672626330969
H          -2.05691759076673   -0.08956841342094    0.35841945733509
H          -2.04912795563537   -1.15548217981827   -1.03742758245120
H          -1.22036372467838    0.30740609614410   -1.05389242251631
