    26
        -50.46050461  Gyration_radius:  2.59221490479 Dipole_moment: 4.570
 S          -1.12719686080786    0.05579432592659   -0.58084605295753
O          -1.06176207014187   -0.17370164641230    0.96174700582107
O          -2.48134899719782   -0.39087330555064   -0.93356736336297
O          -0.88590394341233    1.44550138116002   -0.87433479554555
O          -0.11763072371840   -0.82204939004865   -1.17848839815776
O           1.72786396078798    3.08687950863651    1.55591196375432
H           2.67062824094316    3.22294707760441    1.66610238814651
O           2.31376482964105    0.19413064169378   -0.69705595049611
H           2.23653407491539    1.10746905603051   -1.00397313287896
H           1.50315359424098   -0.25264168186647   -1.00787828740392
O          -0.41072443705599   -3.34617125998087   -0.68070251185091
H          -0.18018795868035   -2.39663984022845   -0.86868591938729
H          -0.38764512627859   -3.78911077410955   -1.53056463508395
O           1.31372062614647    2.80158487034500   -1.11829141626343
H           1.56029301272950    3.09038581022487    0.59187141353371
H           0.46687302071405    2.29400526876144   -1.03799375094778
H           1.12040376686820    3.53236792086407   -1.70719257983414
O           1.25291057774389    0.43171825823747    1.72467746430888
H           1.31490144647647    1.40397956701612    1.84136590595032
H          -0.12272066312303    0.09228091993474    1.30693420554205
H           1.79032895915761    0.24039807462603    0.91695665954699
N          -2.52944907409869   -2.40399712476059    0.55575912541683
H          -2.63250980948772   -1.52403033103158   -0.14079017833947
H          -1.75972411969929   -2.98574503054866    0.12226627274136
H          -2.18327881257199   -1.99387560411265    1.42265327384580
H          -3.39129351403988   -2.92060670238863    0.69411930389594
