    26
        -50.46893909  Gyration_radius:  2.40448621826 Dipole_moment: 6.282
 S          -1.58686045662557    0.84933770110475    0.27274844926359
O          -0.93097439826196    0.44009196326240   -1.10388692185081
O          -2.55512790286061   -0.16112712772451    0.62706917829195
O          -0.46291246957244    0.85680439143806    1.24224415492285
O          -2.08474366802717    2.17942243623819    0.04040587976081
O           2.23626335826607   -0.96966531180784   -0.32616766422045
H           3.07971021895624   -1.42236389086097   -0.29519602182394
O          -0.30017212148667    3.02980581473151   -1.66577772306364
H          -1.02248637078529    2.84846707959500   -1.00997453942315
H          -0.58657909245118    2.57767572891054   -2.46294328971584
O          -1.43097763385965   -2.43914289723534    1.12185661126668
H          -2.13342249823213   -3.07053586030089    1.28390742965261
H          -1.88597879773114   -1.56093104889962    0.99762233275173
O          -0.18762111223428   -2.02282715271017   -1.23905709186528
H          -0.74240277054498   -0.54087761983194   -1.18291440927635
H           0.74283072347551   -1.82566388818561   -1.04512028504849
H          -0.58763744903227   -2.37032958624308   -0.41750262165951
O           0.93961864155478   -1.27882730709146    1.91121316883320
H           0.42536440254557   -0.44517650056259    1.86262526789281
H           0.25847142048124   -1.96311871604598    1.83492651600838
H           1.80914351395978   -1.10792708769064    0.57061154941767
N           1.44236894433692    1.68972903352158   -0.21671331543016
H           2.15320549397428    2.27927637410971    0.20320519488748
H           0.68281869858776    1.40427332087274    0.50696981434465
H           0.88248703242247    2.21990534049608   -0.94975653389574
H           1.84561430313976    0.80372483080924   -0.56039514017453
