    26
        -50.46893909  Gyration_radius:  2.40459082434 Dipole_moment: 6.282
 S           0.48564555446090   -1.20017966804823   -1.28053116522452
O          -0.29016785084890   -2.39738359427706   -1.05909460771786
O           1.53129326990818   -1.27123930110432   -2.26664269820991
O          -0.40604141897473   -0.03872489697062   -1.52402620592559
O           1.24576950326128   -0.85268093510720    0.05894268664084
O          -0.59316885496247    1.76910233244830    1.60287902740595
H          -0.99046967066371    2.42535126625959    2.17628606160805
O           3.17950439177439    0.50655932255740   -1.29559124859983
H           2.63830434007397   -0.16484386743879   -1.78648678904533
H           3.56801513655627    0.01145822693119   -0.57040546887987
O          -2.18948076137691   -2.00739832584643    0.65525800176051
H          -1.50697563484818   -2.17104539347904   -0.05264573413585
H          -2.61692276445822   -2.85305747974671    0.79855132981169
O          -2.38968782607384    0.67636533982233    0.06623298189399
H          -2.66278347888441   -0.19060576786725    0.40064871787528
H          -1.33285181062237    1.41372249017814    1.02634809070328
H          -1.78669476607490    0.45043287728072   -0.67349395947543
O          -0.22469282594308   -0.94356507177451    2.17246570209078
H          -1.03482646286789   -1.34707258663118    1.80303397983213
H           0.69249776100326   -0.99248990352999    0.88255052826648
H          -0.36806266674428    0.01600928501504    2.20046356782980
N           1.02235321753639    1.87284706152233   -0.65359035397184
H           0.36923908438256    1.13975882777823   -1.12069974520531
H           0.96393118910408    2.77252860000064   -1.11877310537502
H           0.70976736779434    1.93774275484026    0.32820149348457
H           1.98650598763154    1.43840837719239   -0.76988107745700
