    26
        -50.45929197  Gyration_radius:  2.4976112948 Dipole_moment: 7.215
 S          -0.38797975486174   -0.65748878267472    0.75501622248560
O          -1.22438838227743   -0.27266999751244    1.88632614774270
O          -1.05323608883386   -1.51043927590484   -0.20759096667371
O          -0.06813511025034    0.70567480118012    0.04678058842184
O           0.90126802952041   -1.19525152394642    1.20092011334558
O          -1.11433944985188    0.04617503986187   -3.52609679334703
H          -1.26468116766479   -0.85645068250765   -3.81325882065064
O           1.23659925482809   -2.33048584869403   -1.29925354620804
H           1.68436325819012   -2.24240520035687   -0.44986292096287
H           0.29404714770978   -2.27974693795799   -1.05735988661069
O           1.20568946294828    2.46879283224839    1.66617901685604
H           0.89729544615726    3.36154401700358    1.50438006440864
H           0.78976030845932    1.90288356051103    0.98498414819275
O           1.10503678452466    0.20296946019891   -2.07989040958076
H           0.46049905966667    0.52935463793760   -0.86766516054151
H           1.31588780036773   -0.75339121986698   -1.94884757619253
H           0.36235203323241    0.22509428606906   -2.73425518789810
O          -2.66754735238265    0.27379660069245   -1.33997902152358
H          -1.77143382705275    0.21326720877664   -2.81417038021085
H          -2.22052440620312   -0.47770475206714   -0.90288495362112
H          -2.45766044631054    1.04119055259479   -0.80424525145817
N           0.82269705947092    0.33966586522404    3.22281884078008
H           1.03670161994387    0.14187442545549    4.19363881137638
H           1.11117714755234    1.28865682183256    2.91462723306383
H           1.21376758952367   -0.36622755542497    2.52888354152001
H          -0.20721602639682    0.20132164736026    2.94080614729320
