    26
        -50.46893905  Gyration_radius:  2.40448362292 Dipole_moment: 6.280
 S           0.89493084556925   -1.21770061877452   -1.01566973369194
O           0.51087898866750   -2.31392156031897   -1.86518874004129
O           2.29581808428268   -1.10137244892407   -0.68687253956603
O           0.37182251994390    0.07208124785895   -1.53163869797657
O           0.09581519941874   -1.47229427457706    0.32209464271235
O          -1.35754674664441    1.64187668554623    1.22889154361946
H          -1.77042768949087    2.39926113473393    1.64496516514413
O           2.77424870248827    1.00430522861003    0.73985039513686
H           3.70322623915135    0.98028098685296    0.97399562955131
H           2.63052748761591    0.22080111219575    0.14053752050350
O          -1.93187322340300   -2.69431713193876   -1.02441850880617
H          -1.03962467773463   -2.64171896378235   -1.45561504316969
H          -1.76515721676410   -3.14299926681435   -0.19201611103532
O           0.62440492271989    2.38784162212697   -0.28719207741532
H           0.57728395489120    1.63652260884286   -0.91576462796318
H          -0.62750387895962    2.00448521773371    0.64468749869092
H           1.47746261373369    2.25502214113975    0.15171832563860
O           0.73467773533107    0.09925277535275    2.26081598947612
H           1.52309304147709    0.53325551154066    1.87903490323468
H          -0.01849394705093    0.69506852218939    2.11996409760578
H           0.42434227974346   -0.92778893574998    1.09647835935992
N          -2.06763361127500   -0.07177693809902   -0.83796167606433
H          -2.05078194157150    0.39406856395086    0.08324129772881
H          -2.76954082251607    0.33815669016578   -1.44502499546646
H          -1.06737462604267    0.05082064686980   -1.24592089657904
H          -2.17257423366952   -1.12921057664763   -0.78299173073813
