    26
        -50.45691218  Gyration_radius:  2.48238821161 Dipole_moment: 6.876
 S           1.29589954228288    0.33464728656783    1.41594764425140
O          -0.15555590020721    0.73713199658519    1.94702813774281
O           2.24999017049274    1.04025448194355    2.19773401300295
O           1.35681033983595   -1.11906648630848    1.45991389133870
O           1.27115582462813    0.78794852453482   -0.00267270838422
O          -1.48735336777794   -0.81087826836200   -1.66257961926887
H          -1.96535922871236   -1.36932700785970   -2.27595302484261
O          -1.72804122760475    2.85072627942279    1.35720354256890
H          -1.38835329368816    3.67060464926155    1.72037711832236
H          -1.23953439105737    2.13138012074738    1.80280560198465
O           1.93650202192145   -2.91259006621554   -0.39979872162423
H           2.84515535364233   -3.20055488202587   -0.30628345528791
H           1.77000047619860   -2.30062879334863    0.34979519944970
O          -1.23792140993152   -1.39228744587972    1.02342233699059
H          -0.69957287691648   -0.05571560027708    1.67946180829884
H          -1.39931227225006   -1.29190415829359    0.06795741259470
H          -0.32678703039544   -1.71961830146528    1.12650236695623
O           1.05437636466885   -0.95466712762161   -2.01073066833652
H           1.38144336276560   -1.79437730302554   -1.62876561852538
H          -0.50291485876625   -0.92754857432299   -1.87038828229156
H           1.30441172009824   -0.28204846724413   -1.34418148928540
N          -0.89260223977582    1.73509031774046   -0.94710470171598
H           0.06556845784468    1.38853392650797   -0.53484502179348
H          -0.72750077062144    2.34436127011914   -1.74125582248830
H          -1.39118895699213    0.87623833607731   -1.24641741295998
H          -1.38931580968274    2.23429529274527   -0.17717251669721
