    26
        -50.45929208  Gyration_radius:  2.49781830418 Dipole_moment: 7.211
 S          -0.73083465714137   -0.47815129717754    0.62514877219710
O          -1.68516515677695   -1.49961180783378    0.20872604873466
O           0.11894214299757   -0.21287223088974   -0.66705813083282
O          -1.34100913749656    0.77485101016432    1.01799162171490
O           0.20568498474503   -0.99731613081208    1.62702113743534
O          -0.13150956587878    3.53719511851191   -1.07121285704699
H          -0.44620283808341    4.07112048814059   -0.33927355928051
O           0.83239305699675    1.60752530585355    2.31750258183095
H           1.05902161752634    0.69778720289722    2.54261013279379
H          -0.08894280361472    1.53504964811556    2.00864076882450
O           1.37598699652104   -2.43398507049522   -1.58251818142136
H           1.37345700170306   -2.45364200947359   -2.54059335218535
H           1.00605634008496   -1.56667442960478   -1.32099703976519
O          -2.06371577819056    1.68789725031878   -1.37283197096529
H          -1.96531478358342    1.38388283705033   -0.44899970151469
H          -0.87535682099587    2.93822347194978   -1.30433297687437
H          -1.79514725188950    0.94399001533916   -1.91554619379224
O           1.60597423148639    1.72118130951158   -0.21908816414238
H           1.08847864668830    2.47146894377239   -0.60559715910964
H           1.50454174670823    1.80439548560161    0.76016982758893
H           0.79175743657227    0.60382920395283   -0.50361043183597
N           0.04691804820295   -3.29645079076954    0.56030491814070
H           0.39000217858620   -2.52688999952281    1.21064030479440
H          -0.87612258633663   -2.80713121897916    0.30005246851904
H           0.65258508360668   -3.29960890674592   -0.28350668772983
H          -0.05247814243192   -4.20606339886734    0.99635782391644
