    26
        -50.46893883  Gyration_radius:  2.40447549029 Dipole_moment: 6.278
 S          -0.70005393450761   -0.52720910054385   -1.59557854930470
O          -0.33438093896485   -0.35417562846976   -2.97662168788837
O           0.62996653522275   -1.02731412373327   -0.90732583099069
O          -0.99570813603268    0.77596518012957   -0.94939275197178
O          -1.74214219236196   -1.48388744547076   -1.30766915268474
O           1.00533092537760    0.88548049527855    2.06198711307207
H           1.22814431784738    1.25602934321623    2.91670837840705
O           2.16494359803340    0.34571402039176   -2.69030413438970
H           1.23114450522590    0.12198425084520   -2.94080190159033
H           2.56603554955863   -0.50395275166032   -2.49254514071462
O          -2.32357030326313   -1.54416499995298    1.21360439765830
H          -2.16483736003861   -1.49956732408251    0.23049823280408
H          -2.97047909047516   -2.24038338040470    1.33696308844102
O          -1.55370096765524    1.07025987951528    1.61524374697365
H           0.01763395004163    1.01631553659084    1.94719604781785
H          -1.49855567614108    1.09413965913478    0.63633040427830
H          -2.00581582744117    0.23184516191918    1.79047879143219
O           0.34702274071362   -1.78101938510896    1.53982240157792
H           0.48918900037055   -1.41524637451092    0.00576895658002
H           0.66861690568670   -0.94213239608104    1.90749094125650
H          -0.62782409284285   -1.77440729416865    1.61190316792170
N           1.34684808996733    1.68492033347405   -0.57615982271435
H           1.49662337538518    2.68545893138890   -0.65185591446763
H           1.86350888392165    1.15667276959912   -1.34157362056122
H           1.55393639568714    1.34619758579293    0.37676447046147
H           0.30812372664843    1.42247701691677   -0.76093166141808
