    26
        -50.45691214  Gyration_radius:  2.48238718244 Dipole_moment: 6.875
 S           1.15109369122456   -1.16066077969464   -1.06043786442442
O           0.15318238034439   -2.07186644789285   -0.20917948288040
O           1.59377420414692   -1.92984333726504   -2.17028476274343
O           0.29304854815722   -0.01267853930606   -1.46598669748604
O           2.17272423590636   -0.69880062581539   -0.13209607811342
O          -1.05196503110854    1.51082482351292    1.49866881652906
H          -1.22196655475480    2.16938848466151    2.17245514510023
O           3.02668972529225    1.73274983442260    0.47567191719166
H           3.83818554842628    1.92307066997077    0.00385451347671
H           2.79917338681769    0.80340526978411    0.25496815234027
O          -2.48657708790204   -2.55253229414929   -0.50670855571679
H          -1.52481782813953   -2.62356576595424   -0.34977151611229
H          -2.67381053919107   -3.09567316568298   -1.27449338734135
O           0.54503653856076    2.38135409496185   -0.31637836832319
H           0.51325956333822    1.59015576481588   -0.89274427677945
H          -0.42082091231779    1.93574484439352    0.83009807945720
H           1.45867194749879    2.37756672609238    0.03467831225381
O           0.51885661791973   -0.71597046210532    1.93259252749554
H           0.22775677433421   -1.66505930680464    0.69914769003499
H           1.36146355374638   -0.52065264411939    1.48563561044613
H          -0.01596905127836    0.09775867782566    1.90283044805056
N          -2.08751892501216    0.10979759954741   -0.57800595260145
H          -2.44468142393867   -0.86541231153156   -0.47730028612278
H          -2.68885309682093    0.66757402929674   -1.17501823576949
H          -1.95203202941230    0.57684169443904    0.33811282267683
H          -1.08390423583790    0.03648316659758   -1.02030857063905
