    26
        -50.46893911  Gyration_radius:  2.4045319173 Dipole_moment: 6.281
 S          -0.88219987584128    1.59241284976270   -0.03614856410682
O          -0.26591521869120    1.01047946042809    1.18240237640959
O          -2.29452245361932    1.29659194777827   -0.08055161247828
O          -0.49614391614529    2.96767288276311   -0.21065217530256
O          -0.18525643567616    0.84357314921203   -1.23875630620571
O           1.34862938449461   -2.05228874288317    0.13718285411997
H           1.76724331736663   -2.89290951983439    0.32540128820981
O          -2.76670674009176   -1.20581806071883    0.38083586363607
H          -2.62080852716540   -0.22698415371884    0.26095647712952
H          -3.70939727496224   -1.33919640558172    0.27172280480482
O           1.86684267980498    2.63478045908807   -1.27122235059370
H           1.00790750041789    2.90425253147454   -0.85370148137879
H           1.62617539614213    2.38858738224142   -2.16757327045967
O          -0.49142758998407   -1.52066560889635    1.90194906761084
H          -1.37676206985575   -1.71786194746769    1.56227991933263
H           0.67684984697522   -1.90226502554020    0.86656041786678
H          -0.43826171500554   -0.54379314187463    1.83303834777120
O          -0.87633931196838   -1.62430615439234   -1.50176464747500
H          -0.08855490600770   -1.96676199157095   -1.04979878211276
H          -1.61693214471698   -1.66565097342021   -0.86498368708673
H          -0.53825870312573   -0.08105393166542   -1.39517068209259
N           2.11273380923506    0.60577941741688    0.38876014614115
H           2.05670214350782   -0.36683101078393    0.04710739218441
H           1.14838507296920    0.81085993885894    0.84725946315409
H           2.87167165186947    0.71985715066614    1.05225086912024
H           2.16434609992707    1.33153945870255   -0.38738373822975
