    26
        -50.45899782  Gyration_radius:  2.47059035149 Dipole_moment: 5.011
 S           0.87530646999776   -0.26218116655953   -0.54786484322587
O           1.31015671042830   -1.44825199928602   -1.23292724624660
O           1.63801127191089    0.98662024202250   -1.11905248082391
O          -0.55585685394399    0.01870994773719   -0.79852245271831
O           1.15219924743008   -0.23918451549915    0.88052666765556
O          -2.14655965740949    0.26545487480548    2.67171759740112
H          -1.88430827375211    0.59201000147875    3.53468412174607
O           0.99919785871802    2.29649941985362    1.40351105247667
H           1.48880016387749    2.69508966069757    0.67918891109538
H           1.20920008652292    1.33196692720879    1.34750208848477
O          -0.97667958613455   -2.64613911548935   -0.28843678630007
H          -0.06908399341597   -2.66010062892801   -0.62269194096835
H          -1.31807627866492   -1.79553914527442   -0.59198228854811
O          -1.40048874465567    1.73080081278088    0.77077043268531
H          -0.50066572220038    2.11121194910074    1.08328527055090
H          -1.11487219771570    1.01254937736722    0.04151857655807
H          -1.77946856519284    1.15894852067220    1.56955504252252
O          -0.60439221626370   -1.75525885246580    2.24488233269039
H          -0.89054078745767   -2.29866774504876    1.48455367525084
H           0.17527592834026   -1.27594930153693    1.91096046431332
H          -1.62235008471022   -0.58526280441426    2.52552061984831
N           1.19029729197877    0.16531803914165   -3.54129103537451
H           1.56259274098318    0.86730398561271   -2.11272913716455
H           1.22949291883258   -0.74648444642202   -3.09102553846995
H           0.23940082938464    0.32416967962983   -3.84795793149977
H           1.79341143326182    0.15636629275691   -4.35369518216491
