    26
        -50.46954183  Gyration_radius:  2.3986813248 Dipole_moment: 4.980
 S          -0.60921876199805   -1.23506788558410   -0.79626871651778
O           0.70654687082123   -0.67390568875104   -1.16847618594434
O          -1.34908388834532   -0.27252679487465    0.02317675874268
O          -1.34914295398313   -1.65767831539787   -1.95320070132291
O          -0.29009077193300   -2.46564244111935    0.10866215659987
O           1.48683888904588    0.44453312707391    2.35007376608863
H           2.11438240863775    0.62448291380860    3.05124650656692
H           1.93276322792575   -0.18349723300934    1.72620084325312
O           2.44115126783222   -1.35313576140975    0.67261183198824
H           2.20069227220077   -2.25876541295271    0.88219120339211
H           1.88405248111398   -1.11270304286622   -0.10219417716476
O          -0.25093608709391    2.01126138866864    0.80839675692387
H          -0.79524995012584    1.21673788686690    0.62311979436431
H           0.45303832081093    1.68256176727129    1.38916104538118
O          -2.20777849204429    0.77876035606735   -2.48512460838711
H          -0.81834367160664    1.57177248290681   -2.15696686803157
H          -1.94594002805855   -0.17057202481691   -2.44968910717110
H          -2.80271791304634    0.88752768192110   -1.73821336221830
O          -0.67506469107776   -1.27276713214397    2.38110329931330
H           0.07731466639061   -0.67855424362031    2.55882854627631
H          -1.27055319275847   -0.75845449701804    1.81291701055288
H          -0.40487651348518   -2.15463124866160    1.04930293704214
N           0.14869868691992    1.76236409666209   -1.77327333692759
H           0.06400912760907    2.13616772067621   -0.78666942143881
H           0.70687304882510    2.34701043042711   -2.38464064984545
H           0.55263563740257    0.78472184977117   -1.64227532142419
