    26
        -50.45599948  Gyration_radius:  2.47910988264 Dipole_moment: 2.526
 S          -0.48241398399564    0.39922483705389   -1.34017114992756
O          -0.79858459682721   -0.51011499268745   -0.13943350689066
O           0.92052592084748    0.74638396902680   -1.31184793452987
O          -0.78481391702590   -0.49326379586574   -2.52868772274054
O          -1.36234805930376    1.53173782453819   -1.33763548805615
O          -2.84109520809105    2.00710333192780    0.85715005132871
H          -2.38402734757237    1.93228128404738   -0.00300370256684
H          -3.73081068303301    1.67980182291489    0.71806587331527
O           2.24044064092626   -1.46984424462359   -0.51206362985481
H           1.98225682638493   -0.56724699008348   -0.76261519145765
H           1.91303123696079   -1.59066168018554    0.41171737067902
O           0.69377439029224    2.71650789840565    0.48177677156669
H           0.01782492642486    3.27006456450590    0.08232677947271
H           0.97875273857284    2.10215952268476   -0.21817733339853
O          -0.63074276233794    0.93147875218933    1.91655551846438
H          -0.71303085236104    0.02065994766832    0.74824679336240
H          -0.02735003642248    1.63817118429887    1.58007449557565
H          -1.52216676967298    1.32975063144596    1.85040158853566
O           0.63697878407389   -2.53450523950257   -2.20894961763264
H          -0.23685543225116   -1.37107831961416   -2.41598977500073
H           1.15211574746650   -2.68691310351056   -3.00479186958929
H           1.29523126671878   -2.22284497924138   -1.50307130657914
N           1.09091809771818   -1.69683734471146    1.94735646024432
H           1.52530384884178   -2.21128127156335    2.70315453706377
H           0.23240620065033   -2.17026808374066    1.69343590216219
H           0.83467903301807   -0.78046553536638    2.29617606644133
