    26
        -50.45691221  Gyration_radius:  2.48239046898 Dipole_moment: 6.877
 S           0.88445482775209   -1.71048725800414    0.29700043747979
O           0.20117460925667   -0.79361151694761    1.25149015250535
O          -0.19646742588016   -1.88993969367072   -0.86496568815333
O           2.01950980033810   -1.02627570749715   -0.30501781803461
O           1.13179632996235   -2.99370810045505    0.85515099735664
O          -0.70470192732145    2.21010368024329   -0.50291640068477
H          -0.72677922801594    3.13517004392678   -0.74858642863535
O           3.29007923050975    1.19811863990864    0.36505728439169
H           4.09216759992849    0.98650884526734    0.84379758044338
H           2.90271592688125    0.33700444733631    0.09572261121085
O          -2.89203784095540   -2.00059685365276   -0.76702725538127
H          -3.20952373707743   -2.81449028396787   -0.37174277418654
H          -1.94689267765990   -2.14508318839534   -0.96822961215216
O           0.90366755170233    1.77195378686789    1.45244453376182
H          -0.05304474673699    2.13000713370778    0.26834044362580
H           0.71084179336449    0.81710692341296    1.55395756155920
H           1.82361491665029    1.78992274498889    1.11872509965917
O           0.50805720710024    0.27043861543861   -2.04622658550552
H          -0.00421109500099   -1.10298766424704   -1.44796668729374
H           0.11104308695576    1.03707749228080   -1.59492670760209
H           1.34365250916979    0.07044368261670   -1.58827644105716
N          -2.07236019250401    0.15703572306072    0.62048205208720
H          -2.57617346359882   -0.56043415286507    0.05467785190881
H          -1.80983352477059    0.98886270615064    0.05927823042196
H          -2.60931246109162    0.43402391728596    1.43541024083268
H          -1.12143704895795   -0.29616397279003    0.93434731144064
