    26
        -50.45804778  Gyration_radius:  2.489403492 Dipole_moment: 6.740
 S           1.22668386764188    1.43980148192946    0.20937038156391
O           1.26346729993037    1.19163856126019   -1.35096516555867
O           1.90949450081420    0.29934562757387    0.82815257395979
O           1.78948806050465    2.71651479726575    0.47608435205961
O          -0.21778757931254    1.36335020806550    0.55897173597941
O          -1.32708255485684   -1.92625967936980   -0.49085084911482
H          -1.81985298787506   -2.59708700321285   -0.96422590012612
O          -0.70117405960445    1.65695074461941   -3.24196039741441
H           0.11079803286046    1.57724539672721   -2.71412576077966
H          -0.83491450036349    2.59397828534449   -3.39416428304576
O           1.48418414295419   -1.02238655242412    3.03193546795594
H           1.80252261408137   -0.54707013024976    2.22614639166644
H           1.83879284532610   -0.53696619437858    3.77827117821925
O           1.31312974573238   -1.37364939368843   -1.10167747364006
H           1.29783555472928    0.19908042695997   -1.42295801315318
H           1.69817002360027   -1.08302898898515   -0.25487510840079
H           0.41554177347205   -1.69703096865012   -0.90942561010343
O          -2.02461386439269    0.46297185830314   -1.18272337770147
H          -1.73118791322665    0.77603744418981   -2.05896934059654
H          -1.64873020059004   -1.03652690175416   -0.83729320986284
H          -1.45029964761256    0.94136155559718   -0.55005105836298
N          -0.89830405016140   -0.70135631269433    1.89628917631450
H          -1.09652338496647   -1.39658687175857    1.15425602431377
H          -0.61588099630418    0.21851017193561    1.37361973390105
H          -1.71932267059477   -0.54351513905666    2.47024202044143
H          -0.06443403178586   -0.97532243354915    2.47092649148549
