    26
        -50.45804771  Gyration_radius:  2.48942001948 Dipole_moment: 6.741
 S           1.41307580664081   -0.99438063636718   -0.79821030934337
O           0.52633547561880    0.04255171378066   -1.39228787406308
O           0.56842457851017   -2.01737024664559   -0.17385883184364
O           2.38902286749001   -1.47223061677355   -1.71310161907954
O           2.15413722453129   -0.24488869441420    0.37942326297264
O          -1.63196647669284    1.17279029238161    1.29398003542187
H          -2.04028651611193    1.76367976026096    1.92721987155600
O           2.70011510151226    2.45173348719445    0.66598871137474
H           2.69784579052606    1.48072680500073    0.62779723749938
H           3.37722912793506    2.74575903288349    0.05429119946748
O          -1.79761670359663   -2.93952458831250   -0.75341305964914
H          -1.73503090934791   -3.57480097540799   -1.46819089060113
H          -0.86672728197372   -2.74129691899795   -0.48760231752066
O           0.11220045560276    2.38078045067049   -0.17979954508284
H          -0.95860346429999    1.72114505895365    0.78304792057241
H           0.96041943961869    2.61877723770635    0.23954733885339
H           0.33135482156936    1.61742978676035   -0.75273086136377
O           0.25825280881863   -0.69181249865136    2.06804748627443
H          -0.46916982826122   -0.06452048299788    1.91135207989947
H           0.14145886414321   -1.42592873765357    1.43776917926618
H           1.52388363832045   -0.34333385909227    1.14401709104846
N          -1.96770818929017   -0.29494907545450   -0.96766214550988
H          -0.90770912092564   -0.16484671402233   -1.20944122252263
H          -2.54782989534701    0.12175506299020   -1.68752570417772
H          -2.12172901683071   -1.32974258486075   -0.88948888336933
H          -2.10937860815958    0.18249796106931   -0.05916816008161
