    26
        -50.45899777  Gyration_radius:  2.47050546012 Dipole_moment: 5.011
 S           0.25222929283321   -0.26083242005721   -1.00210158667506
O          -0.98214299303564   -0.76480232028794   -1.83273696517744
O           1.31788967748764    0.10414522508221   -1.89442531017850
O          -0.24995522841466    0.90765145555060   -0.24553521190448
O           0.55631188070622   -1.35744678793619   -0.09517011806534
O           0.01957147536241   -0.09580605930161    3.43590779752046
H          -0.08856755551790   -0.90055301198782    3.94663777673080
O           2.38919448912329    1.51267395758561    0.20951377821622
H           1.45860617724627    1.76416928837981    0.26473078836451
H           2.44808499860628    1.03955598434665   -0.63213319922403
O          -1.81787758975348   -2.14068135572381    0.59510082612035
H          -0.86661411205037   -2.04525730800615    0.34295457693778
H          -2.29168799367874   -2.15223301172462   -0.24070544825142
O          -1.69781476814661    0.18511163546961    1.62228823126607
H          -1.11345025447052    0.58372957213159    0.82922855337828
H          -1.89091827578823   -0.77162290828355    1.30707755490571
H          -1.02702277375395    0.10645796218096    2.43009814406978
O           2.08701522131128   -0.53497053061192    1.96049293646610
H           1.65083139166672   -1.02393079372966    1.23949894252229
H           2.42397872486066    0.27342436932595    1.52659997596642
H           0.88110989847440   -0.20730578236561    2.92100308791981
N          -0.73603082827566    1.25657285340138   -3.44378549030052
H           0.24619474992214    1.15526473880723   -3.19758860441946
H          -1.07903093403188   -0.06645928798136   -2.54711034255692
H          -1.07153260546184    2.12549042742747   -3.04882096068555
H          -0.81837209468755    1.30765411405892   -4.45101974195600
