    26
        -50.45599951  Gyration_radius:  2.47900742162 Dipole_moment: 2.528
 S          -0.57923938589737    1.32030686420794   -0.33198802627081
O          -1.29800154465985    0.86218137484519    0.83551574260342
O           0.01881305446040    2.69183871557383   -0.08327726726005
O           0.66400868931104    0.43603369584131   -0.53475857625581
O          -1.36615787649128    1.33557326472655   -1.53095715287850
O          -2.57615735171572   -1.14624681779160   -0.38204064023377
H          -2.27655624363153   -0.44264517975321    0.22109883772534
H          -2.99468619449606   -0.69522496619211   -1.11980842470506
O           0.56923296648701    0.17541415672458    2.66186274731664
H          -0.25242579919200    0.31091349873116    2.16122546965995
H           1.01730333832823   -0.59139392117390    2.23016598775203
O          -0.79801089290483   -0.44573341725456   -3.46313592802717
H          -1.08780353371840    0.26344864052759   -2.85690794725415
H          -0.27316966801881   -0.02055913086865   -4.14270997302291
O           1.56996822083816    2.40000963557052    1.86587389372974
H           1.27694637720697    1.50150385689274    2.23398250166266
H           0.69773359914972    2.60636566603429    0.70108618164385
H           1.35294921995594    3.04792030165484    2.54044213644405
O          -0.17303357537912   -1.82506849620786   -1.25608194350736
H          -1.08662720562741   -1.79629208055605   -0.88033238143655
H          -0.29848304398581   -1.60410198716326   -2.20112365431652
H           0.38327599165749   -0.52648247926523   -0.80247025491451
N           1.75599581633995   -1.81094687819968    1.22381135700378
H           2.30282073383270   -2.54326388762899    1.65885897032523
H           2.37312721951398   -1.25696605593061    0.64253530022205
H           1.07817709863391   -2.24658437333492    0.60913303399915
