    26
        -50.45488966  Gyration_radius:  2.47910391487 Dipole_moment: 2.650
 S           0.02786897985457    0.54542719867814   -1.06783953624343
O          -0.57074700640254   -0.03478156379742   -2.37273427560339
O           0.93426127851308    1.63027128909923   -1.36873686525645
O          -1.12888376354164    0.98532820014381   -0.26982879715370
O           0.72887908520845   -0.53549481178906   -0.36451916566994
O          -0.73490837364734   -0.59382062151531    3.21100528539945
H           0.02989402489664   -0.88746115024282    3.70983804952056
O           1.99164539955782    1.22552729367521    1.09279911367728
H           1.72929494626188    0.37988362660915    0.66232430515813
H           2.00973621932932    1.83632445984468    0.34070942907364
O          -2.99192950227911   -0.94932974330723   -0.07382303025357
H          -3.74365529064474   -0.54559966671087    0.36334738307588
H          -2.38397660972542   -0.22165704101013   -0.30296987152860
O          -0.33362363394287    1.57153515300506    2.03008659997936
H          -0.54201085881412    0.69096069360671    2.59452312469861
H           0.67479111635038    1.53235328575735    1.79644418716676
H          -0.77657395250565    1.41466670573933    1.10416768335462
O          -0.84828047535045   -2.07889431696853    1.13558108951767
H          -1.71732038350994   -1.91569244443219    0.72133183820215
H          -0.20667061846777   -1.63644691958425    0.54255217896243
H          -0.82969729546590   -1.24063725315889    2.42838458704765
N           1.85515262315733   -0.28020449195796   -3.28024389104801
H           1.98706769845068    0.59088475571159   -2.77331847614564
H           2.30127724662591   -1.01965588522862   -2.75325698351254
H           0.23584297643725   -0.25314470051377   -2.92077881847630
H           2.30256614967863   -0.21034203162934   -4.18504515396140
