    26
        -50.45488972  Gyration_radius:  2.478316539 Dipole_moment: 2.636
 S           0.51383735640539   -0.75404349341077   -0.78127007366686
O           0.46473585198520    0.68748168992722   -0.50891385845366
O           1.85752135676709   -1.25943430480637   -0.61468312469396
O          -0.45900340170099   -1.45210453447084    0.07586496415525
O           0.02532320327620   -0.98911115002631   -2.23185361721976
O          -1.62195503965488    1.08539617858416    2.71786771435729
H          -1.20846953389778    1.86253514850810    3.09880366658714
O           2.02982846365768    0.35555958253640    1.55488740906164
H           2.49463957668244   -0.35676651846533    1.09074020445529
H           1.51352502918270    0.77085911909855    0.82658393719923
O          -2.98896317077558   -0.77826275881585   -0.55501867221084
H          -3.55298270481411   -1.35897326053676   -0.04134645350559
H          -2.08185201106809   -1.12546012319722   -0.46450459264070
O          -1.93472133193556    1.58913338767856    0.23279930094961
H          -1.04726329877227    1.37695740779946   -0.12281357217891
H          -2.51520703353233    0.89051795896490   -0.12521500515374
H          -1.82474123813989    1.31856878806235    1.74626325200918
O          -0.02309624237615   -0.81735304508638    2.45779410301720
H          -0.26840160142735   -1.19900455685581    1.52392935484127
H           0.87922917900286   -0.34545817002296    2.26801370878628
H          -0.73138919734595   -0.04095978794030    2.63953310904284
N           2.19923575723396    0.17577315156595   -3.06047447998672
H           0.74034938666364   -0.56770957179296   -2.78812073220749
H           2.82103305338334    0.08353031700534   -3.85343372890237
H           2.11775965876147    1.15608517646195   -2.82361390467675
H           2.60102793248153   -0.30775663076539   -2.26181889899096
