    26
        -50.45781627  Gyration_radius:  2.44476893013 Dipole_moment: 6.398
 S           1.18580439375418   -0.91141158552376   -1.15882717576023
O           1.89230461324990   -1.94692920003601   -1.82792881792994
O           0.37976384729898   -0.04157156802482   -2.04844010461997
O           0.31891105694120   -1.39521529552660   -0.07406924438503
O           2.23064733380728    0.04619600250553   -0.45663386409152
O          -1.30206253826819    1.79626127037962    0.85246363891605
H          -1.77251751781409    2.36005257736033    1.46725848136555
O           2.68825323467688    0.15371635800596    2.28140590028777
H           3.13305095787668   -0.63261392124937    2.60217366646884
H           2.72205976804100    0.11367126352068    1.31164515775767
O          -2.04831939128449   -2.44542469926552   -0.38152288696658
H          -1.99049471219486   -3.18263609654279   -0.99137560515457
H          -1.11765288472117   -2.21773842736572   -0.14521328566250
O           0.87843308611625    2.23706768791354   -0.81613513396974
H           0.58614743316716    1.69067709992215   -1.56521095729018
H           0.13824606182446    2.25918255407314   -0.18612984626960
H           1.83378545362097    0.95322786951766   -0.52147940971611
O          -0.02974956033782   -0.01034194897235    2.13815320481484
H           0.88571500228686    0.19720547627515    2.40317279811191
H          -0.79992163223641    1.12196814174109    1.42078769901817
H           0.07300242738429   -0.63687054207941    1.38849203538635
N          -2.01106109895939    0.10883694865001   -1.14266139671784
H          -1.92049483993257    0.75438282588080   -0.32801705764072
H          -2.24733855764803   -0.86252385130051   -0.82202831436999
H          -2.68628023615425    0.45763504648009   -1.81448308311064
H          -1.02023170049441    0.03319601366130   -1.58539643847132
