    26
        -50.45599951  Gyration_radius:  2.47904793292 Dipole_moment: 2.526
 S           0.22761718168683   -0.79475025485963    1.22713390511828
O           1.53122244184699   -0.31659486639458    0.82517912020160
O          -0.85163906919158   -0.03284539770723    0.43762037235349
O           0.04817825643279   -2.20751923877017    1.05727904455369
O          -0.06314577399179   -0.40103256705241    2.66274392384725
O           1.29439723521906    2.35183475435572    0.48299566167011
H           0.67189078953368    2.41402070649908   -0.28105992634415
H           1.59491467209821    1.42792505456518    0.49789258402782
O          -1.64091209230168   -3.06864788506404   -0.84929577023124
H          -2.48007779565630   -3.30044958400579   -0.44915952883808
H          -1.02585732049946   -2.88964852564821   -0.11167542337523
O           1.70970834687475   -1.79605746981854   -1.39501509407687
H           1.55021351158877   -2.68067531733481   -1.05604860699815
H           1.87456851360379   -1.23982906636107   -0.61270200805538
O          -0.68722432392675   -0.82127198125920   -1.94677966926509
H           0.25171455776563   -1.12930794337615   -1.95994515159213
H          -1.20482683345094   -1.64368090551002   -1.83112797426410
H          -0.81373681199590   -0.29014024166271   -0.56696978496561
O           0.02125008941637    2.10537627049648    2.69712437494582
H           0.48100699845297    2.31158705216556    1.81692576751177
H          -0.07075406175851    0.63862312283287    2.71295774651034
H           0.62564178974432    2.39034649322481    3.38664057897458
N          -0.54498467812804    2.28851691953437   -1.52565278529199
H          -1.39144204638607    2.17630803363805   -0.98100153321452
H          -0.42922213690875    1.44464386490232   -2.07478536893643
H          -0.67850144006974    3.06326899260438   -2.16327445426428
