    26
        -50.45781622  Gyration_radius:  2.44486039506 Dipole_moment: 6.396
 S           0.85616854876704   -0.41820410773737   -1.63449439186639
O           0.32376024861209   -1.27638664529926   -0.56574113509782
O           1.38511135134446   -1.14312255737985   -2.73627648140139
O          -0.18071478682490    0.57860815507770   -1.99366599988926
O           2.02531176668292    0.40578507477682   -0.95889276260107
O          -1.07331368302240    1.33656397382074    1.64612830098991
H          -1.37679407037890    1.65162127082680    2.49806014924852
O           3.19507617369125   -0.21717186658032    1.48278136953678
H           3.73079429512519   -1.01054182638302    1.43226955003626
H           2.96919129510783    0.02177418645850    0.56897279976370
O          -2.01125790956146   -2.43837843900075   -0.57815127159628
H          -2.09888186467154   -2.96440969844208   -1.37460288240786
H          -1.05770110124642   -2.19072980331552   -0.52248287703500
O           0.56940281686040    2.45604731903571   -0.29860302180705
H           0.10205831564829    2.11552906448924   -1.08012509931746
H           0.02429331578528    2.22197468687670    0.47164038277720
H           1.60245958411683    1.24790996967863   -0.64868599132511
O           0.54298240722474   -0.61681382457915    1.97413729281627
H           0.45795404339890   -0.99193311617964    1.07021099304646
H           1.49029616853277   -0.39849274022479    2.05390834812782
H          -0.42001107270501    0.58545988422541    1.84325706525785
N          -2.24533032982719    0.21659712809917   -0.52220328556479
H          -1.95711728737549    0.61161910740234    0.39953105172831
H          -2.36200256886906   -0.82474587419601   -0.45958492858848
H          -3.08442746935192    0.66862915134500   -0.86935576791842
H          -1.40730818707209    0.37281152720605   -1.19803141691225
