    26
        -50.45488972  Gyration_radius:  2.47854779775 Dipole_moment: 2.643
 S          -0.45128823567700    0.15068069289394   -1.10214470231146
O           0.28409824502319    0.79365380209602   -2.16728449319140
O          -1.95542130436012    0.06578205448763   -1.46021609500994
O          -0.02267926339370   -1.24124137032972   -0.88464846856959
O          -0.31972273197226    0.90767068323904    0.14852687768957
O           1.73793351738090   -1.32906161239526    2.53119293825875
H           2.20103464680937   -0.66044377510126    3.03961752207951
O          -1.67206067790816   -2.53203349849624    0.80796285707373
H          -1.39113446666123   -3.44869195485421    0.80189420638599
H          -1.19743459514788   -2.09427025436491    0.07673573321717
O           2.22073404955544    1.27272429272244   -0.33462173605252
H           1.31995011848168    1.35210244516686    0.05461855229238
H           2.03375471938535    1.31941371874263   -1.28429514213006
O          -0.68615618347079   -0.54201432744452    2.35851668625868
H           0.75454823114226   -1.05932298839299    2.53531181694462
H          -0.63311769201999    0.09084437084052    1.61298534111054
H          -1.20158847356825   -1.29266320293094    2.00623659472156
O           2.28104671781076   -1.22095598391548    0.09460910171629
H           1.35604017900671   -1.36411674519893   -0.35488215531911
H           2.44612360752941   -0.21142718715897   -0.06741169888263
H           2.10520799648528   -1.32830368248405    1.14122879922454
N          -1.89792371417689    2.62162211437564   -1.94272923876617
H          -0.97394113241581    2.39559584196317   -2.30094211707935
H          -2.35891779198896    3.25349000749438   -2.58461181911622
H          -2.19655888161711    1.01192788695389   -1.67275931204393
H          -1.78252684422351    3.08903868210836   -1.05289002851978
