    26
        -50.45781625  Gyration_radius:  2.44478490878 Dipole_moment: 6.401
 S          -0.51059029397213    1.78766594788017   -0.35084822142373
O          -0.83416769714484    1.04942762030210   -1.59509930087367
O           1.05890952934718    1.98315993815227   -0.36541458174530
O          -1.12930657503557    3.06233582938040   -0.24316757842962
O          -0.77692865847860    0.90479960992492    0.79452775606806
O           0.87618472401703   -2.16676376244586   -0.43314133543445
H           1.28987827029210   -3.01929840575013   -0.29461924128805
O           2.75081850631993    1.35516842645851    1.74690401070343
H           2.26050869354638    1.74025614401416    1.00228136310794
H           2.64125650915922    1.95664624182800    2.48534576086245
O          -2.95535282203892   -0.48061371773386    1.16393470306047
H          -2.16346055147136    0.10523623836766    1.22296327178178
H          -3.71269527081615    0.10593599800959    1.13031237907358
O           1.56324394145930    0.02555197225702   -1.99975199067345
H           0.66516091454820    0.28731248631054   -2.26437309792621
H           1.40133790568421    1.27793683715946   -0.97355124117470
H           1.47487971695444   -0.81658590913515   -1.52193823265798
O           1.04212157618113   -0.76937897232662    1.70127944481600
H           0.31331051919541   -0.14561204228008    1.48958193269768
H           0.99739873847728   -1.65385226977401    0.43400455987627
H           1.82632495416636   -0.19710680628906    1.79562044793999
N          -1.63000687030838   -1.30971106475618   -0.99500525475594
H          -2.24357026631536   -1.18887341982489   -0.15174444949463
H          -2.11520005995289   -1.78601306604094   -1.74778269226339
H          -1.34252480437979   -0.30254845931746   -1.28899202845255
H          -0.74753065943350   -1.80507538437166   -0.74132640339394
