    26
        -50.45781628  Gyration_radius:  2.44480616748 Dipole_moment: 6.399
 S           1.16353276507127   -0.14222899623742   -1.48511310495591
O           0.70359467149284   -1.14027443835896   -0.50807761943630
O           2.00853239262856   -0.67965854171594   -2.49325207840484
O          -0.01954248750507    0.58875571712189   -1.99875196206737
O           1.98547053979676    0.91340893347437   -0.64140200890770
O          -1.59643653378206    0.98072958490605    1.46252158618398
H          -2.08948913014387    1.18368203509922    2.25804401689876
O           2.89804492657599    0.50276903732220    1.95043355446836
H           2.75863504705548    0.71304499909336    1.01261443468113
H           3.61065656687372   -0.13771450179120    1.98301134629431
O          -1.25171036334538   -2.82695043312003   -0.87307836760575
H          -1.09098257593651   -3.32924257421610   -1.67346251065474
H          -0.40555860196429   -2.35996238072339   -0.67369160978435
O          -0.00507768272817    2.52921345174648   -0.21168095752792
H           1.32963773909292    1.61756223435230   -0.39956064513194
H          -0.25555094801235    2.11481242466149   -1.05469467139501
H          -0.58485370888442    2.14414656537120    0.46719815350901
O           0.37905041255873   -0.53782058050947    2.03471726479523
H          -0.81701043594251    0.40178597116435    1.75757484437830
H           0.52188018919053   -0.89004002837591    1.12883369186173
H           1.22256299223829   -0.10143736781149    2.25705660283796
N          -2.12878055320664   -0.30995909622704   -0.85734942395077
H          -2.08438764518364    0.10963575022544    0.09685090099330
H          -1.99705214599538   -1.35050827626946   -0.81185207994362
H          -2.99172622730457   -0.06047788789227   -1.32854043874810
H          -1.26343918264016    0.06672840870988   -1.39834889838740
