    26
        -50.45781630  Gyration_radius:  2.44483159355 Dipole_moment: 6.396
 S           0.83335643739225    1.04066291579036   -1.34229180690096
O           2.07103696634635    0.87123887393421   -0.37198047659731
O           0.19868024046911   -0.28488428050311   -1.38991494093622
O          -0.08920381590082    1.97614697905292   -0.65567576629255
O           1.30113741489144    1.49363032212389   -2.60533229926422
O          -0.95501788973558   -0.51344905428135    2.11453780927492
H          -1.23808325820024   -1.01119856017383    2.88219772827937
O           3.13261209825476   -1.56737307212644    0.43053968079323
H           2.94676865331057   -0.66652723064688    0.11887577497717
H           3.58449013417110   -2.01571854098002   -0.28628238286541
O          -2.24320353883473   -0.76683021170979   -2.16904877832721
H          -2.37203403263312   -0.40593237208280   -3.04761284349357
H          -1.27015662093949   -0.74040336542116   -2.00705501788536
O           0.82455434523364    1.59916027251084    1.79025685799366
H           0.24650655556922    0.87369438024316    2.08154114195590
H           1.73257609033971    1.12583977585929    0.52519301030241
H           0.33651075296537    2.07978795218065    1.10040392390610
O           0.44634144210572   -2.00816640249527    0.58571759282147
H           1.40972418243698   -2.01669943806659    0.73811899655416
H          -0.38582647178889   -1.14878888432151    1.56483576037831
H           0.33684094466440   -1.47430939328956   -0.23162911245242
N          -2.20275640529617    0.71248594330724    0.04815622572061
H          -1.88939835797211    0.16044930877265    0.87626328753173
H          -2.98516963367431    1.31404728345738    0.28246357690744
H          -1.34286211342079    1.29516387070284   -0.27488328608317
H          -2.42742411975252    0.07797292815858   -0.75739465629655
