    26
        -50.45599947  Gyration_radius:  2.47903256902 Dipole_moment: 2.528
 S           0.67556735938428    1.21733775040819   -0.49982368287707
O           1.85652661087871    1.30817278725609   -1.44729858197253
O           0.71326124363465    2.29991250174264    0.44010545449536
O          -0.56219588883940    1.12684820646966   -1.24088618741875
O           0.92257216706509   -0.11547979356184    0.22898930032579
O          -2.17563119245133    1.63512128952619    0.82995292873654
H          -1.81474630427433    2.46079666042337    1.16292507662989
H          -1.77527378953439    1.50791423222494   -0.04875189222239
O          -0.65927201677456   -1.37035808080539   -2.26467360046388
H          -0.71991128917501   -1.93060992011891   -1.45376667172027
H          -0.85666325706528   -0.46573290345146   -1.97007124413590
O           0.67569130844222    1.72415426527131    3.06616979328690
H           1.56714049096992    1.76976276664954    3.41445651537370
H           0.72075527114513    2.06512824695405    2.15181373403383
O           1.78069665579406   -0.79500750178052   -2.81162146809638
H           1.88080444802649    0.43382370810487   -2.01155759185190
H           0.84313770358271   -1.13304317321308   -2.62336338006223
H           1.79921385431201   -0.56597313398697   -3.74387725752792
O          -0.80226964694628   -0.26538276301942    2.05536427605249
H          -0.33122908138376    0.29607428088403    2.70383812100810
H          -1.49698109597327    0.33060881297847    1.68280008824086
H           0.21765736363493   -0.25392771954687    0.97794438146737
N          -0.66572318305465   -2.72180914690169    0.10081623116266
H          -1.00873968930266   -3.67064865845585    0.18254267434572
H          -1.11178454612831   -2.16246897000916    0.81862688155183
H           0.32739652403396   -2.72521374403338    0.29934610163934
