    26
        -50.45488984  Gyration_radius:  2.47859075652 Dipole_moment: 2.634
 S          -0.36107283515720    0.86793894379544   -0.74945630191787
O          -1.69777008134595    0.92255671006326   -1.29630003002803
O           0.17242784553758   -0.49767240942250   -0.82009389200295
O           0.58573770353923    1.79927182237858   -1.54600223286501
O          -0.30297931197942    1.34952713540121    0.64087757600620
O           0.46642068162924   -1.70742777062779    2.84076146387125
H           0.30370751453572   -2.64620420826968    2.73021496513569
O           2.23944447573114    1.61917285741520    1.48726799532698
H           1.34544667839632    1.67209932940275    1.10050535162169
H           2.18808894802222    2.04425945141494    2.34512794957798
O          -2.13820719251384   -1.44290114787285   -0.05242761666154
H          -1.22237888698289   -1.38105299632411   -0.40821697533056
H          -2.58864965928070   -0.73244871662198   -0.53352354938252
O           2.07455641870355   -1.03514052818775    0.97308968873939
H           1.17325055580428   -1.45755931689619    2.14958220045268
H           1.46067740506245   -0.90880860518537    0.22063349416215
H           2.39046038727181   -0.13584514818956    1.18446432680741
O          -1.47039647190364   -0.30823242990179    2.10900546483009
H          -0.67195674105165   -0.89766695378366    2.49931781860736
H          -1.01200190291231    0.47572741803463    1.60572286747810
H          -1.87854692311578   -0.85559441449727    1.33006095153644
N          -0.21460204251161    0.61051861295538   -3.71787729466371
H           0.47023657484327    1.49427083226513   -2.49025168540751
H          -0.36937042722251    0.87537192453842   -4.68214292031457
H           0.16120939556062   -0.32863104573537   -3.69492077636645
H          -1.10373211862912    0.60447068386246   -3.22541883922110
