    26
        -50.45491425  Gyration_radius:  2.43189634271 Dipole_moment: 6.961
 S           0.04266369619704   -0.62985330247807   -1.83647279561584
O           1.10457022108838   -0.80061563058981   -0.84707200290849
O          -0.43909590341626    0.78483814742374   -1.79181814405166
O           0.36058948026556   -1.06332702234930   -3.15019771141462
O          -1.18877405976237   -1.44963129890324   -1.29626692424277
O          -0.24367636823910    0.80966996202146    2.21724453859897
H          -0.15076387116606    1.28706318693190    3.04187047037878
O           1.06869237727670    2.87160948083346   -1.10900858594997
H           1.69254809415217    3.08525063194793   -1.80436648787026
H           0.50564602006644    2.15108647402924   -1.46162828113666
O           1.23486935655321   -3.09223631222583    0.47412846157254
H           1.20456580177041   -3.80458622632727   -0.16600150363462
H           1.36129717111465   -2.26758064833649   -0.04217753556979
O           1.85198131644324    1.12577000263713    0.80731274188808
H           1.69153150148447    1.90401180711795    0.23738639209408
H           0.63338691837015    0.94049221944077    1.71216283588581
H           1.73857551649854    0.35788677284329    0.20765112623821
O          -0.92981566517557   -1.74771276527073    1.27516731169925
H          -1.05816709272814   -1.59519377413878   -0.31969708931594
H          -0.18749214301718   -2.38505894988698    1.21135667014109
H          -0.56971193785340   -0.98084836634654    1.74674273844932
N          -1.97318550460847    0.91041683245136    0.19578891854902
H          -1.30155787329138    0.89074453578438   -0.71122975965862
H          -2.47565271089228    0.02470743995383    0.21994047377927
H          -1.35784206882589    0.97844251807219    1.04786150335942
H          -2.61518228230430    1.69465427536583    0.14132262873507
