    26
        -50.45490055  Gyration_radius:  2.49084201711 Dipole_moment: 5.142
 S          -0.63822398901924   -0.67344238802339   -0.85974897912809
O          -0.89014123264367   -0.76415675101461   -2.26207044656982
O          -1.59126422899800    0.10964889290313   -0.08591762643521
O          -0.69104589487860   -2.11034200935898   -0.21507676548121
O           0.74049172258296   -0.19728917169860   -0.57240470099761
O           0.39589002315710    2.43719075172390    2.23258286762157
H          -0.21061882192342    2.56147850059433    2.96513751829392
O           1.12690494908671    2.28103078562868   -1.56096056721177
H           1.99325687167861    2.54111704058446   -1.24164953402205
H           1.02792593023429    1.33367855361444   -1.35161892325167
O          -1.36043387726825   -0.97545208019419    2.25651535104759
H          -1.64978713017431   -0.53324596190443    1.41926289231272
H          -1.38040332965253   -1.91440930046535    2.05186646903731
O          -0.97677970318636    2.73802650888699    0.08451815914763
H          -0.31202935894389    2.79874825593224   -0.62887026333391
H          -1.37883085443624    1.85623158437083   -0.02142483216058
H          -0.13461308254130    2.64289973546039    1.39257424768515
O           0.94815642937911    0.01201461929244    1.88524806514782
H           0.79557408293195    1.03926772809253    2.06876116675216
H           0.07062266442948   -0.44410212055504    2.17530971948047
H           0.94444715900653   -0.08749608794792    0.82716672908855
N           0.72760553798248   -3.03074239070875   -2.18148363070317
H          -0.14888333783911   -2.65548186631371   -0.85991239835103
H           0.59670118407643   -3.87458797580412   -2.72433752941673
H           0.27674546988810   -2.25524487370510   -2.66528472444270
H           1.71873281706840   -2.83533996938947   -2.12818227410979
