    26
        -50.45490061  Gyration_radius:  2.49067133595 Dipole_moment: 5.145
 S          -1.07901494104459   -0.54852022653122   -0.37107134823791
O          -1.94067541113939   -0.56011283873963    0.94822795224033
O          -0.08009168896980   -1.58753907764718   -0.16430478779782
O          -1.93075126503457   -0.71152206440820   -1.50527112362689
O          -0.41654014429000    0.78231086929941   -0.35989927560072
O           3.27725671242089    0.12662516815152    0.56395032297979
H           3.72884327981814   -0.52773676918625    1.10037461372688
O           1.16204366444350    1.09100680319662   -2.52332520001509
H           0.47192862825019    1.03173104037058   -1.83681045846418
H           1.62056917433068    1.92081856887448   -2.37715571854035
O           0.29010511103916   -1.43732241141577    2.39671649777511
H           0.18700943852670   -1.70031577280435    1.44776753106385
H          -0.60918345867879   -1.39352284467853    2.73335955487300
O           2.26493844036722   -1.13030933007240   -1.43205918088208
H           1.98411314485270   -0.42801616882070   -2.05053110586271
H           2.95598963894483   -0.36385235914115   -0.26402510930049
H           1.43635760945446   -1.47579547997429   -1.05177880123198
O           1.09922426056610    0.83143516638622    1.59643119807280
H           0.44547654478691    0.89647510209747    0.76130233285854
H           0.80412359468600   -0.03555006743178    2.06930962855542
H           2.04786527675578    0.61178592102793    1.19112835087633
N          -3.65850301221488    1.02453436596971   -0.17675526736921
H          -4.66925342948641    0.97687342315711   -0.17836209177715
H          -3.38394123946832    1.99736239908754   -0.21790864298526
H          -2.70212738723427    0.04932664106488    0.71317122327800
H          -3.30576255168074    0.55982996217315   -1.01248108460977
