    26
        -50.45490060  Gyration_radius:  2.49070704359 Dipole_moment: 5.144
 S           0.64971816359229   -0.42034473077662   -1.00151694943561
O          -0.72929702357576   -0.42890043939413   -0.44619544756229
O           0.93203763134554   -1.60415173903705   -1.74808276743814
O           0.67076596533589    0.83099090089892   -1.95903558311145
O           1.59448048751150   -0.08777041496228    0.05538800292850
O          -0.41554285006402    0.79552896240251    3.20477515040200
H           0.17551599333047    1.39646276763799    3.66236973639878
O           1.29839840459604    2.48239949232139    0.21397771085380
H           1.61176289006754    1.54326477819416    0.20505072491271
H           1.31172042526514    2.74916112156284   -0.70943254927654
O          -1.06508376550300   -2.48445257172521    1.26559247630460
H          -1.93525168213619   -2.34862069129594    1.64577953757530
H          -0.98177718976060   -1.84793992644092    0.53144333120973
O          -0.98930265067572    1.62802488111488    0.90603647866331
H          -0.12388229409999    2.12204282641195    0.64271902884717
H          -0.96336763440606    0.74503688246941    0.31554027201898
H          -0.82842676568408    1.30518342050654    1.89715599833192
O           1.00801865966253   -1.20218318844591    2.44887958982399
H           0.13617148623733   -0.02752797787161    2.98687890107567
H           0.35964185189560   -1.87502945224591    2.16353898553813
H           1.40141334288037   -0.86647402509874    1.62242876193309
N          -0.71670030693719   -0.49685361693335   -3.70230893095813
H          -1.70578601548174   -0.56773491143536   -3.50202899090923
H          -0.24480259482383   -1.27943456864901   -3.25094688997935
H          -0.58671683785387   -0.57026604915841   -4.70311944277145
H           0.13629232928333    0.50958826994944   -2.74488711537636
