    26
        -50.45531821  Gyration_radius:  2.42681953875 Dipole_moment: 5.998
 S          -0.03715030739044    0.59558761835940   -1.80606165190756
O          -1.35930717570109    0.80978137519352   -1.15217454158289
O          -0.14097341530452    0.52055871889830   -3.22447698564139
O           0.94333767159966    1.53076905203092   -1.26940471888778
O           0.39590482753516   -0.84962375259720   -1.32312073338097
O          -0.32888846096781    0.45739598071710    2.34634026633674
H          -0.27665898564961    0.79398664491510    3.24152993174644
O           3.27183473300975    0.93697481766245   -0.14608370971383
H           2.46922868413670    1.28245267801950   -0.59270019162350
H           3.89608102024571    0.73537766359619   -0.84446563507564
O          -1.02649778110059   -2.00663441061542    1.33759985153477
H          -0.98054308240037   -1.13614123580799    1.77427891115719
H          -0.10655130823308   -2.23151403889278    1.15719798421441
O          -0.48242176430039    2.49393677902726    0.73177046358356
H          -0.40911790709435    1.26027219361094    1.75273934842582
H           0.19806579154902    2.29295847791633    0.05405318205446
H          -1.30242628703538    2.31286656453773    0.25695285810273
O           1.62292431361713   -0.84409387673348    0.95231698541554
H           1.07351607783881   -0.30604828819195    1.55270761606300
H           0.88434189142466   -0.81497816621378   -0.44863785259810
H           2.37960639074269   -0.27302102514231    0.69920785908533
N          -2.17215265301940   -1.54590494634103   -1.01881263248190
H          -3.16858910595668   -1.71817973528199   -1.09898642701992
H          -1.64817726330533   -2.02128634684117   -1.74882936915684
H          -1.90512171663923   -0.44908056549570   -1.11293001611305
H          -1.79026418936399   -1.82641217594900   -0.07001077687996
