    26
        -50.46173763  Gyration_radius:  2.45739551208 Dipole_moment: 6.255
 S          -0.13994964596118   -1.47497282080756   -0.12285530449210
O          -1.29055313656511   -2.34028644255561   -0.38150855782719
O           0.70189701642321   -1.34447918375154   -1.31108062533017
O          -0.81710305151930   -0.07371545561775    0.09850463792099
O           0.61425957146092   -1.80337801079718    1.06188561909319
O           0.64597491091282    2.34290742543249    2.40052374016495
H          -0.16235688670090    2.79123574393089    2.65257494522382
O           2.72244404999541   -0.20777575736036   -0.03229193533329
H           2.17110188284946   -0.72586892128718   -0.64927005360564
H           2.61295985054057   -0.65708855122627    0.81078239728840
O          -0.33196296221686    0.60907055860064   -2.66626397987304
H          -0.07015271775169    1.36431351334466   -2.12620436785122
H           0.21432048080852   -0.13906557666644   -2.32186637992843
O           0.92171233124729    1.75440376207653   -0.18094719364700
H           1.73786939579273    1.20220912634090   -0.18392544953972
H          -0.12850430994314    0.67451834543972    0.01599138278668
H           0.89226319948394    2.14974170747320    0.72037575061525
O           0.25846774882155   -0.21495968718055    3.14001988507327
H           0.30947460516490   -0.81282521658697    2.36197172138400
H           0.79323262616204   -0.62726253452603    3.82069461440378
H           0.54171179860648    1.41479315309901    2.70575998691458
N          -2.46899167762395   -0.77040318551571   -1.98449081240792
H          -3.14384017093700   -0.23899766034247   -1.44215082667648
H          -1.67118980208851   -0.12618331319052   -2.30354611351942
H          -2.00010669248057   -1.52104670831825   -1.30591889614295
H          -2.91297839450879   -1.22488430001446   -2.77676421470945
