    26
        -50.46173766  Gyration_radius:  2.45757182197 Dipole_moment: 6.252
 S          -0.34285025042859   -1.35477813682560   -0.50750146249067
O          -1.34134406798798   -1.82774445878203   -1.46616581742640
O           0.99565725314835   -1.35164673918093   -1.09570779153355
O          -0.74834756410943    0.15200773599228   -0.31691079611651
O          -0.38420376314091   -1.99953137300638    0.78198479190350
O          -0.23194188242212    1.81323487742004    2.88647707403952
H          -0.94936424110018    2.44529320276548    2.82557771303800
O           2.25187564734506   -0.96759136892482    1.20300970958466
H           1.64111246314887   -1.44885366837018    1.76865365559784
H           2.00527561115222   -1.24413932422578    0.29980009402938
O           1.20855475417055    0.93923700061579   -2.29095142965148
H           1.29831364642939    1.53170639686187   -1.53493385732047
H           1.34225960554898    0.03653251001452   -1.91155040742060
O           1.20595813399593    1.42975220740829    0.67910412325386
H           0.01588763479989    0.67828935873677    0.10711675511866
H           0.79673071876858    1.72572215871866    1.52434241951593
H           1.78203530210334    0.67190336019399    0.93351970649888
O          -1.43496860612035   -0.58973007162874    2.75077465121493
H          -1.11078131402989   -1.09724636077734    1.97442390638297
H          -1.41781914578281   -1.20237922246379    3.48806256389855
H          -0.65692851427741    0.92737357534568    2.88579910772119
N          -1.19736314310729    0.16274963822798   -3.02818803029116
H          -0.24084814068959    0.58227288220770   -2.77845985980756
H          -1.25098903632895   -0.06665645521619   -4.01609000604394
H          -1.30024983407215   -0.75337683428887   -2.40048631458774
H          -1.93566123701797    0.80759911919258   -2.76170048910282
