    26
        -50.46173765  Gyration_radius:  2.4574066439 Dipole_moment: 6.253
 S          -0.05482441552442   -0.34577382475476    1.44493689645109
O           1.36570572491690   -0.26249708801758    1.68039396867811
O          -0.42030684824241    0.65162580377345    0.28621386899347
O          -0.47712265275453   -1.67209382328045    0.99751094491048
O          -0.89174864538252    0.13333242578866    2.54474786367508
O           2.07450410016579    1.59108538820690   -2.19864969300045
H           1.73532424696712    2.46327124636213   -2.40406942567492
O           1.67071380118131   -2.10349204354530   -0.48927988960774
H           2.30242423252467   -1.61745536320353    0.04860600156375
H           0.89287701497082   -2.20322175645693    0.09219312218165
O          -2.34382919972428   -1.23896300909814   -0.74880300273785
H          -1.67289909530151   -1.62457706523039   -0.13403139819630
H          -1.82495932244899   -0.90979992711301   -1.49248985534499
O           0.27461534588758   -0.35294375951555   -1.93916991552886
H           0.82302317532200   -1.10401461957523   -1.61346857039626
H          -0.12506296509578    0.27735782554674   -0.61571091705740
H           0.92780604203597    0.32431338853930   -2.22944983935620
O           2.63522575786001    1.68577216222689    0.43125913971332
H           2.32903175801005    1.62111702543736   -1.25009462743108
H           2.10958487333184    1.01681227255769    0.92274895507827
H           3.53340577106433    1.60097148003693    0.75589687657904
N          -3.00859904711503    0.42389480746656    1.18192786266852
H          -2.12348131935667    0.30135682548058    1.84928678531643
H          -3.04641354661096    1.39625467431902    0.89028283205994
H          -2.82201432142930   -0.20369494022885    0.33066916922158
H          -3.86298047526151    0.15136189428123    1.65854284725180
