    26
        -50.46173758  Gyration_radius:  2.45762580913 Dipole_moment: 6.258
 S          -0.25844746814890   -0.04365646856457    1.46307427082687
O          -1.67382756911015   -0.09346154930498    1.10015259454328
O          -0.02085368362075    0.91982772578871    2.53771074731296
O           0.30786524818891   -1.35179203134508    1.68290420193823
O           0.48907338619128    0.61747259540263    0.24851205601883
O           2.05807664945660   -1.45715359434831   -2.30610101334223
H           2.75328106914023   -0.84950617522519   -2.56172331373436
O          -1.99173521421202    1.78799059987312   -0.65520430721357
H          -1.55375737331253    1.39868521252503   -1.42148537077262
H          -2.09428189785471    1.03519912379107   -0.02316649573704
O          -1.45150425243773   -2.28305232237186   -0.37182593134482
H          -1.77095484946943   -1.57488664448962    0.21933951178842
H          -0.75115602523894   -2.70809507766068    0.13165714474869
O           2.49008938024966   -1.91703104776991    0.30946723975373
H           2.22762301560672   -1.67388547389634   -1.36285402196436
H           1.71464366605465   -1.63728891584847    0.84406127987796
H           2.72900255242954   -2.78737257661140    0.63303264626964
O          -0.35560739148534   -0.40434373996488   -1.91607114289656
H           0.18217370074649    0.20153799692177   -0.63113476929278
H           0.48211895266715   -0.79860634538852   -2.25132804442205
H          -0.86011445001278   -1.16697942226668   -1.54885219900771
N          -0.53282206669174    2.99448509288312    1.17536223184162
H          -1.11221571858322    2.59832994474595    0.36259057522617
H          -1.04508032252721    3.71577427530409    1.67407649136983
H          -0.31370614657986    2.12790901762004    1.84241171511858
H           0.35211681854093    3.34989983021996    0.82539389309854
