    26
        -50.45997514  Gyration_radius:  2.57013732194 Dipole_moment: 7.038
 S           0.80151557110255   -0.21441622103717   -0.62990742197757
O          -0.71188188124652    0.03558489464924   -0.34529185572135
O           1.11634615403223   -1.53826998716289   -0.09517384081820
O           0.87524294224218   -0.20692822739923   -2.09670836035377
O           1.57902164157675    0.83491630316924   -0.01401735681025
O          -0.86029734980966    2.95463626852362    2.19575629765479
H          -1.72844412252682    3.33199297814663    2.04677745292007
O           1.57088921371057   -0.56438509026745    2.36486342539980
H           1.99032370088398    0.22359246948177    2.00136376846866
H           1.48875017438347   -1.15372278481401    1.59445526423195
O          -0.25836789041296   -3.48063233941150   -1.11767509566194
H           0.26441610302290   -2.79591292030681   -0.61951954922628
H           0.38654443212686   -4.11979435172344   -1.42607162444253
O           0.50100097982613    3.22809516649836   -0.09918622982576
H           1.25272486079860    3.82339651734652   -0.08090928865284
H           0.88382454578436    2.32257155949816   -0.13973754352885
H          -0.35313179054473    3.10272826441839    1.36526568610228
O          -0.94968050757567    0.27876249683329    2.13222258260054
H          -0.07627278431131   -0.06399623634356    2.43322156121025
H          -0.92562664536250    1.25306138230054    2.27957035405872
H          -0.85402969613673    0.12917581712633    0.68649619520860
N          -1.23790497770803   -1.49023860803474   -2.52343166893346
H          -0.28682691652760   -0.89733771400299   -2.47153155870362
H          -1.61609982030759   -1.57874749916065   -3.46044929779157
H          -0.98058005117549   -2.41908600713535   -2.08397450230334
H          -1.87145589583199   -0.99504613118984   -1.89640742311381
