    26
        -50.45997517  Gyration_radius:  2.57049240944 Dipole_moment: 7.040
 S          -0.77391725691400    0.33805657940134   -0.60737663921358
O          -1.46436823174752    1.14831007566011    0.39472582234704
O          -1.30028899086897   -1.00350527888530   -0.69862201609333
O          -0.72247939489836    1.03096211335104   -1.90135522174722
O           0.72391983389455    0.27191130676262   -0.17607140227047
O           1.41209275299040   -3.42871841312550    0.74281240279041
H           2.35762557363809   -3.51608996646014    0.61366455779472
O          -0.56495306169121    3.56373988174128    0.65064325569849
H          -1.32696693915683    4.13584552479337    0.54280694233289
H          -0.92994864908788    2.63819992970809    0.67284176482426
O          -1.85214857795885   -0.96390079047960    2.00548138527215
H          -1.86210886474645   -0.07128520978678    1.61718090718433
H          -2.02211637886318   -1.53918334908836    1.25111609835472
O           0.81100557106824   -1.09668036554855    1.91519843147111
H          -0.14311933655383   -1.11463949523479    2.16073508773899
H           1.02770693187148   -2.00434929842512    1.59808763398016
H           0.79995621220202   -0.28340669092658    0.70674620818922
O           0.36447969636538   -2.80031732724307   -1.64541122472566
H           1.03187595838912   -3.24620923325123   -0.14649613026566
H          -0.20584661426425   -3.45761732381687   -2.04858260014462
H          -0.23525953069635   -2.08030542579949   -1.34532215266258
N           1.01222787873371    2.73288040694324   -1.27793846251492
H           0.24711560805741    2.02138876401366   -1.68712796069264
H           1.42938419066781    3.33513554135914   -1.97944388871218
H           0.48659693758432    3.26353571986181   -0.52674759001033
H           1.69953470194252    2.12624230443397   -0.83154517893131
