    26
        -50.45997516  Gyration_radius:  2.57052696178 Dipole_moment: 7.040
 S           0.73239777720379   -0.66784085686204   -0.31665586305359
O           0.54006055231585   -0.24454280880055   -1.68374254302914
O           0.80669551186692   -2.12685686205778   -0.16549527374180
O           1.87490876302208   -0.01528190554303    0.32081287315075
O          -0.52729795087193   -0.28412734575482    0.52000673447167
O          -2.72388677984948    1.91305350543534   -1.79487746096282
H          -3.60528161614398    1.79855368861611   -1.43654694624875
O           1.47260402629913    2.26945281260427   -1.02969148500129
H           1.84057000368084    1.58071431558407   -0.44839280664983
H           1.22609303506730    1.78415259163665   -1.82508685474865
O           2.27793508964803   -0.69084809546850    2.78856391582137
H           3.19112670216666   -0.98039515859616    2.83135583291417
H           2.16055551712537   -0.31966197070361    1.87272555493572
O          -1.90372031227830   -0.50798343519945   -2.60848385462510
H          -0.99567498168362   -0.47804973428108   -2.23069923941789
H          -2.45138642499712    1.03016667328629   -2.13403934412438
H          -1.78459539400191   -0.62361395505679   -3.55309503606137
O          -0.91193825611315    2.16083930878191    0.16208808706213
H          -0.05417871707064    2.42213445391703   -0.24651646599690
H          -1.57985425798079    2.19422304781564   -0.56189186083216
H          -0.71303566664351    0.73865900721270    0.40645643736913
N           0.20800643473224   -2.22135150622121    2.26910174002443
H          -0.60215576603309   -1.60224314960708    2.27375128959776
H           0.46890940081007   -2.31896590241913    1.18224459840984
H           1.03528666306273   -1.70380363657802    2.68139630801159
H           0.01785662666470   -3.10638305178170    2.72671167273032
