    26
        -50.45997517  Gyration_radius:  2.57045857219 Dipole_moment: 7.038
 S           0.70717704056888   -0.28844572056967   -0.70694846381014
O           0.55669972167971   -0.52592866860241   -2.14846641998785
O           1.67974636895895    0.77215632611174   -0.44844743784671
O          -0.68780506470955    0.27050150369574   -0.28781103286336
O           0.98085736356250   -1.49085919364168    0.04425799127902
O          -1.81852673018902   -1.84028037891972    2.75757698137441
H          -2.77353996348333   -1.76372198919154    2.73639973798167
O           1.24855259666198    2.98116328820010   -1.73008099349386
H           1.45361060312550    2.20223581069734   -1.14564403063932
H           2.06608279464327    3.17587466431915   -2.19192925216419
O           1.97432948619848    0.03762758165134    2.11670820792281
H           1.91789965100484   -0.89531345309925    1.88144874322529
H           2.06773429248386    0.48353589806334    1.25643270309210
O          -0.65101307404802    0.50534123082904    2.20165081118583
H          -0.70667878782785    0.39602585460748    0.75015824694651
H          -1.06553326881601   -0.32785434747061    2.52629969653077
H           0.31422611089479    0.41612308039182    2.37861078142432
O          -1.09239499358041   -3.04465588028623    0.47324376112877
H          -1.56628088124074   -2.32569021905773    1.93932710809539
H          -0.34028640345093   -2.45413537058915    0.24123250273372
H          -0.71368251429134   -3.92200388919205    0.55479956974559
N          -0.74317122482501    1.55422019649836   -2.67546060550090
H          -1.16589363276294    1.68968106292188   -3.58749559825964
H          -0.18569969525681    0.58598052594164   -2.57254992550132
H          -0.01915123774197    2.28885446024251   -2.43399895838433
H          -1.43725856756465    1.51956763643761   -1.92931412422492
