    26
        -50.45899785  Gyration_radius:  2.47061644385 Dipole_moment: 5.011
 S           1.02245957292828   -0.12562907141480   -0.27116422950373
O          -0.31603052492019   -0.20588329960263   -0.89723272438376
O           1.83584210371316   -1.26006554563352   -0.61269626785087
O           1.66576497865393    1.18103705846398   -0.85954099055687
O           0.89848203582672    0.13667544855795    1.15479123367081
O          -2.79285270308769    0.10863490423678    2.00110246904710
H          -2.83578275539494    0.59059306852851    2.82934399000150
O           0.14561040389496    2.61844623059564    1.16771596441134
H           0.72849748204606    3.02293516641963    0.51975074546299
H           0.53734851611570    1.72617000120549    1.33504551685892
O          -0.35815994960094   -2.81220423545489   -0.03490095742834
H           0.59212417047243   -2.66447567804305   -0.13842023564908
H          -0.75683835345716   -2.10412149809836   -0.55633201759388
O          -1.85048720131639    1.45527647684887    0.09952603759510
H          -1.25291630407523    0.73418036598808   -0.40257038916519
H          -2.31648740961579    0.91717035062896    0.87534682601755
H          -1.15312909481607    2.06353008208274    0.54211661395643
O          -0.84696612890468   -1.55224726418491    2.31530194825054
H          -2.10079437550814   -0.61438586379525    2.13594660694219
H          -0.81430081411061   -2.23630845486177    1.61797827341356
H          -0.10893208643936   -0.95593690503877    2.09433237431438
N           2.04175462089922   -0.01487159002344   -3.13340613878057
H           1.19545896631027   -0.11314262554652   -3.67898605982225
H           2.83138524050611    0.01089923104506   -3.76563199771176
H           1.88190358115127    0.92495366821298   -1.80562172539953
H           2.12704600867435   -0.83123003114151   -2.53179485572273
