    26
        -50.45114699  Gyration_radius:  2.59862882481 Dipole_moment: 3.632
 S          -0.42067363277442   -0.38533407445201   -1.64160815132125
O          -1.27927857941348   -0.65960633322783   -2.88381833649786
O           0.64574402787845   -1.34308606921193   -1.57610344568136
O          -0.01273246543194    0.99568386221815   -1.63815826807685
O          -1.40105371898477   -0.60185087037305   -0.48092139458125
O          -0.05969124568390    0.48617526371128    2.84260388000030
H          -0.82584190952671    0.89541909015107    3.24536059830048
O           2.84966052383503    0.34171081127104    1.62039176278131
H           2.43301096418075    0.28700257969271    2.48479257597376
H           2.69596975503959   -0.51767954334849    1.19688907040361
O           2.07018446007488   -2.08473096561106    0.49119003142750
H           1.63762966348395   -1.79665397062460   -0.34387670621266
H           2.59750422281594   -2.85397284154322    0.26934606951775
O           0.77082675817621    1.90987108528294    0.79079320246286
H           0.49314070606042    1.65573239875593   -0.10584782813834
H           0.20265526142225    1.07447556556474    2.08464896514575
H           1.68265743724031    1.57898379650735    0.89202567526760
O          -0.44182443242294   -1.75473405499917    1.50893128738001
H          -0.32765236972096   -0.97775399794267    2.11410688009056
H          -1.01532104010155   -1.14046189192166    0.34581951113776
H           0.46165388813788   -2.02448234039504    1.25899278095297
N          -2.65181056765319    1.47039964739154   -2.50712740518049
H          -1.80574397777625    1.87080283800384   -2.11126312975238
H          -3.33178474343443    1.35505895357287   -1.76756986803365
H          -3.02690691481460    2.09707560280595   -3.20680456191411
H          -1.94032208063256    0.12195548872636   -2.88279318544857
