    26
        -50.45075315  Gyration_radius:  2.5615310786 Dipole_moment: 4.153
 S          -1.27026695506789   -0.63505528354234   -0.98506198472255
O           0.17180053372385   -0.37068357331065   -1.02335833697093
O          -2.03135515391136    0.57432241187861   -1.23701659547694
O          -1.58432764513327   -1.67845647127507   -2.09689121906315
O          -1.64720543143535   -1.26972871332665    0.27973582482039
O          -0.05566393108200    0.96112675462367    2.71667836033100
H          -0.74302130866608    1.28526160645973    3.30053132508237
O           2.64628058955920    0.81896876254154    1.92919046994434
H           1.78495899162881    1.03276864230853    2.31723322527917
H           3.29757786590973    0.89371417145354    2.62774954932928
O           1.93733237418250   -1.41845550491930    0.56324753559485
H           2.39697339485293   -0.63022417208447    0.91390760725476
H           1.36549794449029   -1.08825233082606   -0.17750416740380
O          -0.40247002997873    1.90688554292959    0.33357695179713
H           0.31294954193438    1.46543297875457   -0.14410459244990
H          -1.19619194146471    1.59915177409446   -0.15358140616143
H          -0.24595173339753    1.36133762835725    1.81310927820686
O          -0.01002242999614   -1.57071640860008    2.08986126270946
H          -0.76055988981143   -1.54203099949317    1.33074690769424
H           0.89601855749655   -1.62289301611686    1.49810301555638
H          -0.03034272249364   -0.63738406183355    2.46213732146277
N          -0.93053299730724    0.18118478185284   -3.82875404416989
H          -1.37463493740179   -1.18501219230520   -2.93148972049215
H           0.06214190805534    0.31693118726938   -3.68610086015678
H          -1.16941329666926    0.49256712147191   -4.76159694870559
H          -1.41957130801973    0.75923934362597   -3.15034876931339
