    26
        -50.45075317  Gyration_radius:  2.56189608353 Dipole_moment: 4.153
 S          -0.23320423738455    0.74962497600349   -1.53859293535663
O          -0.88028937649472    1.76778356829804   -0.70825939314532
O          -1.06819806441296    0.67447293670846   -2.85044626579394
O           1.13633710899838    1.10117828928538   -1.86475138377744
O          -0.30360138038959   -0.56616400525625   -0.89510935138834
O           0.68943832782548    1.15435529826230    2.54913148248568
H           1.10778961843688    1.97052908332246    2.82718945301619
O           0.00745455425172   -1.54112112564143    3.00431108197217
H          -0.14065963984206   -1.79335236728076    3.91656212381076
H           0.37551320734348   -0.64516260161262    3.01130664444251
O          -1.87064429086879   -1.19762834856805    1.07385631424081
H          -1.24414078294149   -1.56134815687022    1.73031577590637
H          -1.35091355578865   -1.09709289150090    0.23447273696865
O           1.90948677647859    0.19889771304656    0.47690878579456
H           1.20515352289903    0.83694393624655    1.74549559248673
H           1.36622207114544   -0.57782910452569    0.28670594783733
H           1.83557667055598    0.71187780029920   -0.35589053827886
O          -1.71599769550633    1.23187659128315    1.54154118905868
H          -1.91825190736294    0.17600776089737    1.40494269640507
H          -0.84200317989113    1.27265418527291    2.03577868795173
H          -1.44540895808175    1.52805108463040    0.55182503562045
N           0.74849651817557   -0.99383380669365   -3.74538474779763
H           1.19156889857493   -1.26629271398887   -4.61354825634748
H           0.64203800944839   -1.81554380880100   -3.16442928145430
H           1.35650072575826   -0.34572407627716   -3.25142130100691
H          -0.55826296093245    0.02683976345152   -3.40251009365289
