    26
        -50.45899784  Gyration_radius:  2.47051915481 Dipole_moment: 5.011
 S          -0.24135912878494   -0.05211784430390   -1.03663502836581
O          -0.85283454075891   -0.38253250319304    0.26986197643378
O          -0.38925049295500   -1.12788306988283   -1.97784957441142
O          -1.03159992340520    1.20653114184738   -1.54544008501817
O           1.12209878132006    0.42126272071803   -0.85119977618468
O           1.94209547363124    0.11661674398883    2.83405570062207
H           2.68035866962628    0.71832921971683    2.94825166510727
O           0.72607093855335    2.77213299567947    0.17037744488827
H           1.03875487385348    1.96835844168737   -0.31305604527366
H           0.02413083869825    3.12983966475622   -0.37964724424195
O           0.42182020958675   -2.80361525245773    0.04511200163331
H          -0.20997078692586   -2.23707510718453    0.50573207569440
H           0.30140687899832   -2.56977144177275   -0.88569171156725
O          -0.14894380491513    1.23496565879459    2.00071787648741
H           0.70176861015410    0.78056489750007    2.42314865630119
H           0.19210676083808    1.98117490423940    1.38518368269721
H          -0.52326558148458    0.51386330500288    1.31579091768842
O           2.53211526866940   -1.24347841892936    0.72556969906803
H           2.22088371126095   -0.61167691918513    0.05244319933812
H           2.19623115697414   -0.49316384469079    2.07021676005677
H           1.95589308641045   -2.02313497934429    0.60130955676843
N          -3.07825368883181   -0.29117112838051   -2.10242633432986
H          -2.35113214428826   -0.98476140358264   -2.26330584904896
H          -3.60363688659236   -0.56997598130721   -1.28406301639057
H          -1.92222205702592    0.82702630891369   -1.81037569323088
H          -3.70326622270688   -0.28030811872089   -2.89808085462937
