    26
        -50.45871484  Gyration_radius:  2.56162298571 Dipole_moment: 5.904
 S           0.50139107365218    0.49170379503537   -0.87323604781720
O           1.41516495424873    1.37924988286567   -0.13861063591208
O           1.09460422717603   -0.78634995964259   -1.18924545468465
O          -0.71161935890499    0.24252674647197    0.08564539647604
O          -0.07911665907612    1.18319133867593   -2.02108593316366
O          -0.56957886466360   -3.52909665699607    1.06683428076380
H          -1.48350764263476   -3.73427909542275    1.26927868475836
O           2.59493999053272   -0.67256923438683    1.12129668121503
H           2.54138538165062   -1.22528303636488    0.33337245921491
H           2.35638824776637    0.21299619000468    0.79296159706799
O          -2.16262857931878    2.43693456062616    0.69557286424845
H          -3.06538329268458    2.29497171681726    0.40570029690260
H          -1.70640294555098    1.57576763178248    0.59397327089560
O           0.12198329551582   -1.12355311221114    1.99009095151958
H           1.09711390827371   -1.02671803613863    1.87123696762116
H          -0.38975770350276   -0.33443302669444    0.91545499854403
H          -0.09204895318304   -2.05633160508087    1.74603609456154
O          -0.49144964346406   -2.86177762338243   -1.52528501774552
H           0.04523535137818   -2.04192822805774   -1.44587290709028
H          -0.00141500772886   -3.43364691051431   -2.11901831721125
H          -0.54132439089198   -3.33742102938946    0.10145594264252
N          -0.10361060328449    3.33954900179971   -0.73443366719716
H           0.68543873243094    2.84152028039583   -0.23932971541869
H           0.12869909218366    4.27261372189162   -1.05503699926359
H          -0.22863133575428    2.59467809119730   -1.51383017714719
H          -0.95586928413780    3.29768459669831   -0.13392561375675
