    26
        -50.45871485  Gyration_radius:  2.56145811622 Dipole_moment: 5.906
 S          -0.29326285349492    0.81766927422228   -0.70844706271080
O           0.45125470673807    0.36805932161957   -1.89414566100434
O           0.46150131555900    1.73410024991524    0.11355342696434
O          -1.61901818564371    1.30186930638839   -1.08358840937357
O          -0.57390959743252   -0.47360083208018    0.13228808233505
O           1.50718171045397   -0.11644465303421    3.41036773563819
H           1.01633592435182   -0.65094016326222    4.03630878585169
O           2.80243600332162    0.46995368816168   -0.60971394298379
H           2.10757452427919    0.37165246041384   -1.28529973869355
H           2.53997856158043    1.26544238510439   -0.13272139510207
O          -2.15658699255452   -2.30389963354531   -1.06657641326095
H          -2.93377619772477   -2.43734966522249   -0.52127496730160
H          -1.54398443605955   -1.75344395744553   -0.53574450206787
O          -0.11287461142977    1.88638156823092    2.67935344714225
H           0.14226234840233    2.77869534250455    2.92101295946919
H           0.01808548074795    1.82887758555538    1.70670873924880
H           0.92494621994634    0.64596473965545    3.18846381781054
O           1.61249972691620   -1.27303390958084    1.00870343288345
H           2.23550755616851   -0.74841193613335    0.45095608240849
H           1.67473077423293   -0.89423690281192    1.91872558052030
H           0.34112656101946   -0.84668892372382    0.51808147464857
N          -1.75327232207164   -0.41969291546912   -2.90671674874085
H          -1.98957695684751    0.39264099971317   -2.22672349575174
H          -2.04156164318885   -1.30477703198701   -2.43522671552805
H          -2.11285873756226   -0.31929774307786   -3.84905990195399
H          -0.70473888985103   -0.31948866417278   -2.82928459046333
