    26
        -50.45871482  Gyration_radius:  2.56161051266 Dipole_moment: 5.906
 S          -0.46047343330609    0.29672338162360   -0.97796999024828
O          -0.19406835941080    1.45514302278654   -1.82645831971331
O          -1.73936394019535    0.33423184700065   -0.30842528411995
O          -0.24098475922481   -0.95349389222312   -1.72034439432487
O           0.66254512071772    0.34639900149807    0.11263884911511
O          -1.13991547601468   -0.01425191019891    3.55235940524069
H          -0.54093156811150    0.42617074224017    4.15704633950336
O           3.18426964128275    0.50137042371404   -0.84113946841950
H           3.58556075453085    1.30689498549600   -0.51056563787798
H           2.33482353989299    0.40505502367532   -0.36235857115804
O          -1.64168348020023   -2.39713982702917    0.05266987912147
H          -1.12300697633021   -2.11002494846210   -0.72024223063131
H          -2.27994309454826   -1.68457936111455    0.17112308774788
O          -1.99533523407310    1.84961720575034    1.83042445344678
H          -2.92725813827598    2.07556637272989    1.84350671426772
H          -1.49052730912463    0.68777236190320    2.95758858026019
H          -1.85724828546650    1.34815007278289    0.99619467136155
O           0.18418581433034   -1.46614052380191    1.74786889576471
H          -0.47978105179338   -1.99545120410052    1.24452697189714
H           0.49276352014706   -0.41988679679485    0.82616636002734
H          -0.31424208086026   -1.02476980344799    2.47744546430599
N           1.64270855393114    0.20235081583603   -2.99363013171712
H           1.04677387312044   -0.60809939619199   -2.67181575192243
H           2.47421933388545    0.27681857589588   -2.36769939502651
H           1.87100091445484    0.18521733804431   -3.98103818516403
H           0.94591215067434    0.97635651240768   -2.68787230174172
