    26
        -50.45899779  Gyration_radius:  2.47051735825 Dipole_moment: 5.011
 S           0.26896363296089   -0.18711012904004   -1.01388684523665
O           1.01021859632107    1.02477345973887   -1.68438175396894
O          -0.84075333746609    0.42244043598233   -0.24777309031846
O          -0.21668169873520   -1.07849798792968   -2.03109489013943
O           1.25199837866743   -0.76257678503468   -0.10833712681075
O          -0.09019922891137   -0.39138233462663    3.41379437604354
H           0.69360377043724   -0.47300811773465    3.96068461434635
O           2.37314975439683    1.36277012650816    0.86782528594632
H           2.50573668911054    1.91194807683931    0.09064769579739
H           2.13782548297619    0.47218747799558    0.50860051919605
O          -1.89046831487198   -2.11071372001169   -0.10987894139334
H          -1.38922941885888   -2.16076597866476   -0.93565384834235
H          -1.98946051688312   -1.16186570363689    0.03925697740405
O           0.00769086159894    1.52744617907172    1.79340532892789
H          -0.43809352424645    1.10346204887451    0.92694384541383
H          -0.06642604657623    0.77275365464673    2.52402452534841
H           0.99835750534954    1.58950384896416    1.53526944379823
O           0.08358460953356   -2.33884533427465    1.73428204369288
H           0.67448306142563   -1.91827695285031    1.08378485673297
H          -0.09361460884434   -1.20133488654997    2.81059294902400
H          -0.74477336933274   -2.48872213718090    1.23759100236123
N          -0.93575916132671    1.28844718529929   -3.38316338311613
H          -1.00876641854100    0.28305216982778   -3.24372706927218
H          -0.91874495530591    1.48164642173919   -4.37624816798241
H          -1.75845378564414    1.72204287213497   -2.98485242428037
H           0.37581204248232    1.31062610987773   -2.40770591322321
