    26
        -50.45871482  Gyration_radius:  2.56168559464 Dipole_moment: 5.904
 S          -0.05121382454578    0.09412407865806   -1.11524666545189
O           0.72650863111001    0.93329262910785   -2.02277748432551
O           0.09163571465365   -1.32612762156362   -1.46864334118116
O           0.65667044323796    0.26031953207251    0.27192686222914
O          -1.42938765146800    0.49936647414153   -0.96812052809637
O          -2.15742550221856    1.09718703330276    2.83877875962562
H          -1.69189556333486    1.58704999004162    3.51822747508044
O           3.31299479443809   -0.22609514419341    0.27051232716726
H           2.35903684534518   -0.06264013878697    0.42324697163980
H           3.76777102542418    0.56714836268969    0.55869481689847
O          -2.08513116417751   -2.02223972465487   -0.06642735277896
H          -1.30018953967627   -2.03019853502737   -0.64324916101411
H          -2.54576503950099   -1.21644077482048   -0.32640730731401
O          -1.98092324330560    2.54656262689638    0.59408305576584
H          -2.79207035051258    2.90450467599414    0.22855409061112
H          -2.13369645529736    1.66145069221920    2.03222441455899
H          -1.70983277014702    1.82770625465367   -0.01933035208827
O          -0.71291948877109   -0.96232808861671    1.95043291009332
H           0.10065213560527   -0.25563528123390    1.01336649542597
H          -1.29651152342696   -0.27388174525553    2.35156566380302
H          -1.29133300806666   -1.49948658963406    1.35776421589417
N           2.49111192102390   -0.84580003347203   -2.18703242616875
H           3.00389519452172   -1.15776816226393   -3.00378973889163
H           3.08062427382740   -0.73527028231074   -1.33324290375928
H           1.93406781229104    0.07760551585784   -2.30886494570328
H           1.65332631297377   -1.44240573380967   -1.94624585202682
