    26
        -50.45469732  Gyration_radius:  2.51011333599 Dipole_moment: 5.578
 S           0.67635335445809   -1.79600781299209   -1.10162858782733
O           1.63324856569243   -1.17235742322257   -0.06021748505622
O           0.65186711369258   -3.20133044343016   -0.90010558709374
O          -0.60742030778052   -1.12316522554217   -0.99823236107974
O           1.30324648181903   -1.44215980916747   -2.45296496363083
O          -0.36038094472382   -0.00508760578784    2.70435077264217
H          -0.13518345882707   -0.21385195330314    3.61206317701839
O          -1.11753546837344    1.48316933338717   -0.85666085038299
H          -1.12782619470869    0.51852952391615   -1.01069221121751
H          -1.75553200361849    1.62706944450241   -0.13405368088423
O          -2.35396534375145    1.58066371902272    1.57764539787281
H          -2.47370986960043    2.34082722790105    2.14824669887659
H          -1.74025660599272    0.97937382592463    2.03344987238358
O           1.02915750951885    1.17639109231130    0.65665233047904
H           0.25096047453388    1.41632810700122    0.08934282614213
H           0.64516476112138    0.91612499084532    1.51298393033106
H           1.42093182716345   -0.19723418650327    0.19223195764089
O          -0.81293269097480   -2.27905100104205    1.39761039933948
H          -1.05410237015063   -1.89027154143450    0.54026737282098
H          -0.19070415668093   -2.97671772029684    1.16956683680858
H          -0.51271599057739   -0.87193569112660    2.25508797126511
N           1.33182539593657    1.11867802279753   -2.48192149956464
H           1.60535768168135    1.53242457712510   -3.36343799104424
H           1.97264125015862    1.42658386352862   -1.76041887309474
H           0.40265858308690    1.44850489079626   -2.23761462998980
H           1.31885239695304   -0.39549818522820   -2.53155082278765
