    26
        -50.45469732  Gyration_radius:  2.51059677364 Dipole_moment: 5.584
 S          -1.59775610065375    0.92651370143024   -1.21922497360112
O          -2.35525770945732   -0.10590854702356   -2.05869250814132
O          -0.16167093899353    0.90568230307119   -1.79010031493353
O          -2.13280515694803    2.22875610098326   -1.40373443345358
O          -1.54673887791436    0.45612892821838    0.15465486746577
O           2.11531506587776    1.43601333744522    0.95587549664555
H           2.82219830710164    2.08136107452001    0.91018974381548
O          -0.29033794159102   -1.66893366729255    1.14362681536981
H           0.19249121819025   -1.38970012595450    1.94303701450154
H          -0.89569718048588   -0.92816515860581    0.94568291191915
O           1.40713807633423   -0.43590767006490    2.89270268131951
H           1.65804517067971    0.29457521071771    2.30153827901734
H           2.21893024345690   -0.78747113630651    3.26025253249344
O           1.41470352857332   -0.69193947284555   -0.62552410035370
H           0.46716857559369    0.21725315647013   -1.35337954689982
H           1.87871138752592   -0.00727716344699   -0.11125742202461
H           0.84450872427214   -1.16575930912048    0.03440268598162
O          -0.20891236737719    2.70325236091533    0.68200010553811
H          -0.56221527480866    3.15425742008949   -0.09110654436914
H          -0.79020608844943    1.93193305202760    0.78958526564590
H           1.27508237229141    1.94386933016431    0.84354412015400
N          -1.10906855519537   -2.30238049776987   -1.63093262254391
H          -0.18204495851899   -2.21138403849241   -2.02894904494927
H          -1.00907356585796   -2.41967800240661   -0.62689471280745
H          -1.90002342685191   -1.03858603094841   -1.90255952469880
H          -1.55248451673335   -3.12650514575645   -2.01473675109936
