    26
        -50.45469733  Gyration_radius:  2.51004769962 Dipole_moment: 5.577
 S          -0.22584709001309    0.24349419599813    2.18709809161108
O          -1.47570845071090   -0.13204891777909    1.35926207333822
O           0.93292308672463    0.18292047977596    1.31242750450249
O          -0.45871341993701    1.70365063746672    2.58504473305791
O          -0.17811720850590   -0.59755164457270    3.33013147239211
O          -0.42862378844038   -2.38914872950185   -1.24726556008223
H          -0.89283227921650   -3.20965873486321   -1.41902521733991
O           1.22597826114872    1.17810632361388   -1.13620097540698
H           1.33662496354127    0.85190138548918   -0.22199596284024
H           1.62133933322454    0.48617795876424   -1.69731888141788
O           1.70709012262734   -1.12968669477037   -2.51685584989113
H           1.02533554897538   -1.66394033552002   -2.07446599414796
H           1.61465849762622   -1.28456787307015   -3.45771847625428
O           0.51181414828645   -2.45066234502800    1.24162616295627
H          -0.10344514368106   -2.44990890449735   -0.31610164550073
H           0.96564573156401   -1.59142949947777    1.22991631153957
H           0.02302934959297   -2.44389666221796    2.07049495641659
O          -1.24107267415696    0.22705226126141   -1.13244326694072
H          -0.34895578998321    0.64881303461199   -1.23894973378423
H          -1.10270745139536   -0.71229109054263   -1.34947012192787
H          -1.40198624173853    0.06412629873607    0.35105313279709
N          -0.63015185235085    2.94463112895765    0.35066057012661
H          -0.66315642255319    3.95289418962919    0.42389512003563
H          -0.51358450709063    2.26849190228086    1.70245392124163
H          -1.46813163621016    2.62051693588924   -0.11697467883657
H           0.16859489269841    2.68201470936359   -0.21927769565061
