    26
        -50.45469734  Gyration_radius:  2.51023653881 Dipole_moment: 5.579
 S          -2.19862609351690    0.06304822475221   -0.23845145379554
O          -2.63972111703162   -0.36347094234721   -1.64134111078913
O          -1.56475182176127   -1.20966318264476    0.36746989655010
O          -1.15902395796466    1.06993116535774   -0.36776861326798
O          -3.31408900955393    0.43011733535640    0.55976291804020
O           1.19014468722727   -0.17831457390637    2.44955225803525
H           1.29713937294434   -0.51130620399160    3.34169396915100
O           2.75650785713645    1.48382640417299    0.85414914757341
H           3.67348045960451    1.27410654887483    1.03550570707607
H           2.22071688324441    0.98340804124875    1.49317361809880
O           1.29661818896632    0.81440367478110   -1.35598325803237
H           1.91716954264268    1.23770123673854   -0.73492592463081
H           0.41247532732153    1.11633625138268   -1.07046289228462
O          -1.12870336776172    1.11921028143831    2.29944378646620
H           0.31920001308901    0.28827817941354    2.43544668903373
H          -1.05764129207545    1.40437468288620    1.37315612846058
H          -2.02161835197829    0.76679085762338    2.36609224447299
O           0.93075129688080   -1.41584682343023    0.01689134684346
H           1.17413950658668   -1.14631165271118    0.92067589730055
H          -0.55875738209248   -1.32296834503943    0.17914135918572
H           1.16599687336237   -0.63900748301542   -0.55422180482918
N          -0.46750589317963   -1.08202527834377   -2.79293665921441
H           0.21819521094185   -0.34356793422424   -2.66516294345766
H          -1.78005194185510   -0.64789465422636   -2.17189188301466
H          -0.55432612120863   -1.28137389099078   -3.78074925271472
H          -0.12771889997318   -1.90978191914518   -2.31825917025995
