    26
        -50.45235263  Gyration_radius:  2.5959055479 Dipole_moment: 4.463
 S           0.18383985928629   -0.46528134821922   -1.47630743952964
O           0.94078678060100   -0.75703319654436   -2.80091704659041
O           0.05079725394377    1.00623333886026   -1.38272473754850
O          -1.12977817132556   -1.08478433753036   -1.53817827602207
O           0.99347575079007   -0.97800033481147   -0.38770583311507
O          -1.17031779038511    0.43157397820482    2.24795971314509
H          -2.07186025677411    0.72115395150644    2.39540111791270
O           2.45230263000700    0.37967230110313    1.31189708387684
H           2.12583752933888   -0.24431656579669    0.62339402802674
H           2.19411350369326   -0.01838432912580    2.16771777522608
O           1.15400665845149   -0.38929907680545    3.56696922464354
H           0.26545407243585   -0.15378234148805    3.25643954477490
H           1.27710672814579    0.03304929388079    4.41809306374520
O           0.51454904328679    1.87733424484059    0.86193465024725
H          -0.18189682505252    1.41071073903504    1.41213560246815
H           1.42736197842103    1.35918748046448    1.08400423102372
H           0.31208169173324    1.56349506003704   -0.16108467920182
O          -1.27355328600503   -1.80259919785733    0.97289566304312
H          -0.37356609046341   -2.14093037204575    1.02903289398356
H          -1.23876371732156   -0.44476389434412    1.74747813479641
H          -1.37829349219546   -1.59130467881759    0.01579443073234
N          -1.10792770496701    0.31332949047354   -4.01081209499855
H          -1.62061403038546   -0.19717202832867   -3.29691663703864
H          -1.63528732082079    0.29735865158093   -4.87465891175806
H          -1.02905641519293    1.27144959976753   -3.69338046215600
H           0.31920162074543   -0.39689639804418   -3.48846102968490
