    26
        -50.47166710  Gyration_radius:  2.38839736278 Dipole_moment: 3.167
 S          -1.23711601462268   -0.21922137189059   -0.66510591452564
O          -0.40048211634526   -1.37823295859746   -0.37240058631499
O          -2.04099012690476   -0.53219563990398   -1.95485586480217
O          -2.18820818708870    0.03759805577232    0.40516620522631
O          -0.42042835991386    0.96932370657117   -0.92685894485585
O          -0.56144191947036   -1.48973081443035    2.27729935073438
H          -1.49920231092520   -1.31325287875029    2.38304777508813
H          -0.43970343444532   -1.58961543795507    1.31206745884326
O           1.83984579086541   -1.65860917634809   -1.68651386971208
H           2.07548841810292   -2.58470076647215   -1.75762566952551
H           1.01448267708652   -1.62491433455409   -1.14842865616630
O           2.01099200974819    0.58731217351270    0.13947496701103
H           1.16163417554287    0.77409291048888   -0.30355587391869
H           2.36638297371846   -0.17770353791059   -0.32736343224051
O           0.16388113513760   -0.18345768602875   -3.31073449498636
H           0.20847762929055    0.59072661485240   -2.73239724442595
H           0.86652433912539   -0.77540348971826   -2.98573241555079
H          -1.34599103014533   -0.51814992158644   -2.65970597662981
O           0.94387138205113    0.68252481777633    2.58229585234705
H           1.53825431747352    0.61622279218658    1.80013340169783
H          -0.11367582493772    1.53350017322135    2.05140003225545
H           0.49277189795005   -0.19262886379875    2.63836980006143
N          -0.92668543466938    2.03573177984030    1.47867075493698
H          -1.59716133302049    1.26826345806448    1.17390303520380
H          -0.52681287917423    2.36265639525301    0.59545630655401
H          -1.38470775443208    2.77986399039284    1.99399397369304
