    26
        -50.46460246  Gyration_radius:  2.41111459712 Dipole_moment: 2.668
 S          -1.28757309484931    0.04814240189964    0.53888925705364
O          -1.50976778512041   -0.77419522078092   -0.63366601589739
O          -0.03395626343670   -0.31151605154194    1.21416519140037
O          -1.27747499983993    1.47989398202561    0.21102612256932
O          -2.44778473090295   -0.20998244534302    1.52707968382528
O           1.95101148669793   -1.62158988750686   -1.69119188399261
H           2.58892493294858   -2.25789818437663   -2.01605302278052
O           0.48305819818980    1.91307848542798   -1.49947301116734
H           1.27330524430838    1.50038735471338   -0.94336335953147
H          -0.30624694185208    1.87024533274690   -0.81829915369238
O           2.07956054679942    0.58683335402801   -0.09067883216033
H           2.27233321619574   -0.18358003327953   -0.65823631485797
H           1.38470076104755    0.27370015581127    0.53415486231523
O          -0.09394042209902   -0.16135088798374   -2.77674755738803
H          -0.76893878877560   -0.45005399224527   -2.12127268780967
H           0.24567887589872    1.14700466268313   -2.18661422381626
H           0.68061143375418   -0.73163730255333   -2.61127577385839
O           0.30476584366321   -2.67604562159819    0.05077609651969
H           0.29713855132243   -1.93239727824627    0.68542855426304
H          -0.55023753555153   -2.58575106701025   -0.38913158789170
H           1.36928192270354   -2.10790477406663   -1.04088388540064
N          -1.31014082030049    1.52729046223853    3.07869005846697
H          -1.24343692682225    2.14889854900089    2.27999609430141
H          -0.42662679770112    1.03775209384927    3.15325785853208
H          -1.45953641345536    2.07326953847306    3.91758882286834
H          -2.21470949282882    0.39740635362469    2.28583470814848
