    26
        -50.46460220  Gyration_radius:  2.4113752813 Dipole_moment: 2.666
 S          -0.46884497032315    0.64797829708837   -1.14401866127194
O           0.25826527736194   -0.37062507860982   -1.91298331894562
O           0.40170897913099    1.18399726792292   -0.08976336830918
O          -0.82298984124710    1.80970417784075   -2.10014304667601
O          -1.70584186492644    0.13028594373000   -0.59422251382347
O          -0.69294504437473   -0.91099813599002    2.82665858740173
H          -0.86920790344442   -0.96251807423842    3.76666565393364
O           0.71543089981089   -2.33033835830965   -0.44167480138090
H           0.56062538954923   -1.60246253784677   -1.17284490069327
H           1.21538732776122   -1.78616699891679    0.30553181824930
O           1.56452049612099   -0.73731758598753    1.29989627541798
H           0.91495410020174   -0.84648372358682    2.02023062120122
H           1.27044483053039    0.06790647329162    0.81348854024874
O          -1.44996918880377    1.37833165559448    1.80542587230504
H          -0.67246368571566    1.52470902169319    1.23100034824870
H          -2.13041257950898    1.11104477223841    1.17443650586570
H          -1.01327629449615   -0.01410053120951    2.52555804258360
O          -1.56338536984072   -2.22567672888855    0.58941278312405
H          -0.24972010147927   -2.46782808129498   -0.03542942748560
H          -1.36914353562531   -1.92442383374617    1.49719834954777
H          -1.81462830161435   -1.41087387400444    0.09777449855397
N           1.72114492293908    2.01007160352888   -2.55704594173263
H           0.07769050669121    2.08911845489017   -2.43134213723735
H           1.73663528783734    1.00530854121928   -2.69565729515202
H           2.38971654773911    2.44533930118854   -3.17977325569678
H           1.99630410573510    2.18601802240902   -1.59837924827190
