    26
        -50.46460246  Gyration_radius:  2.4110818923 Dipole_moment: 2.668
 S           0.64087745696386    0.42959259958192   -1.16382930857054
O          -0.71628471664777    0.75138234195964   -0.70409776176362
O           0.92766347460074    1.28051366733402   -2.42189423582237
O           1.63163595528318    0.76792032957530   -0.16144231339802
O           0.70920172597683   -0.98707439187107   -1.54570655002454
O          -0.27229518939528    0.40995882369562    3.00893569890244
H          -0.49554107310596    0.72674287905842    3.88483295208271
O           0.40348232717073   -2.39582701742393    0.48757160931339
H           0.58094218197536   -1.93296156424604   -0.43081460741592
H          -0.51735842769949   -1.97574158751554    0.76897964646071
O          -1.59250413238891   -0.99396583271290    1.07418235438419
H          -1.30862189207277   -0.55713759302469    1.89958768420955
H          -1.42692769259917   -0.32920086522060    0.36567782011039
O          -0.01740649401113    2.36642983219941    1.28698085079573
H           0.90872377613524    2.29115537387576    1.02344426348911
H          -0.48565249350753    1.94223911630321    0.54104770458909
H          -0.19330328038823    1.21687266482814    2.42560752387965
O           1.84979855807570   -0.89706944624268    1.87675838061032
H           1.20363610198773   -0.48059758419619    2.47804539806045
H           1.09275491729392   -1.91977080406646    1.13060438008149
H           1.97859675344521   -0.24662679926094    1.14952298133489
N          -1.09070242503583    0.07269393654372   -3.51168063821649
H          -1.76888820172090    0.35763109017673   -2.81539530679718
H          -0.69212699133007   -0.80698997350071   -3.20166590580168
H          -1.56094985592126   -0.06511729724729   -4.39720103020610
H           0.21124962691078    0.97494810133925   -3.04805162030607
