    26
        -50.46460246  Gyration_radius:  2.41105711314 Dipole_moment: 2.667
 S          -0.59256081147833    0.38489697893575   -1.20517588915258
O           0.68652950802158    1.05990600019489   -1.29885500971399
O          -1.57408408639017    1.09034019058021   -2.16860084345513
O          -0.49857723856818   -1.02621018644281   -1.60191344040609
O          -1.14838436549432    0.47929295259745    0.15097957568880
O           2.00850836210044    0.76379979910358    2.16275102868751
H           2.45714884441503    1.14714023691985    2.91718562940066
O           0.08111056656468   -1.14208372567906    1.83464212893015
H           0.77252917498987   -0.54403276510236    2.17677866278892
H          -0.51339461574705   -0.56395355944088    1.30206689886621
O           1.19167041571277   -2.16619897777414   -0.16784873116837
H           0.74197204727206   -1.91111313892520    0.74698521408105
H           0.49420971063395   -1.81133955965414   -0.85804581901908
O           0.39173001039729    2.46824626099921    1.00588830295328
H          -0.35300547829723    1.85340212442901    0.85335803338396
H           1.42140486387947    1.47911643416789    1.78684828697058
H           0.77601864881642    2.55627889705399    0.12432399343799
O           2.76025544191379   -0.21820732276247   -0.27955287844937
H           2.72066861528318    0.13513870396814    0.62935424549205
H           1.98243477461292   -1.47097776740358   -0.25020715405773
H           2.13212184175741    0.33546496280986   -0.79683114411991
N          -3.33486164235952   -0.65202170875565   -1.40531774773091
H          -2.64517369621915   -1.37655127310702   -1.57355372000282
H          -3.29178095068874   -0.41856362528233   -0.42072694664262
H          -2.40975244339135    0.55676330007733   -2.04170824750617
H          -4.25673751773200   -1.00853319150941   -1.62282440923796
