    26
        -50.46460229  Gyration_radius:  2.41139025061 Dipole_moment: 2.669
 S          -0.99226409656615    0.42460075508537    0.88529806725006
O           0.10052430057854    0.85234102327341    1.76876630215453
O          -0.73014839969869   -0.93679967319325    0.40094706492985
O          -2.29520087392675    0.38787576859706    1.71603642611130
O          -1.19111534232173    1.34674591957401   -0.21502790595430
O           0.83726086320146   -0.18528772516605   -2.92673549207164
H           0.94622320718135   -0.43313463199180   -3.84546314539666
O           2.19183343894156    1.07186625256479    0.43007869653726
H           2.17929389669359    0.09057621865479    0.05426352815729
H           1.39030152922328    1.05808192745098    1.09793197642626
O           1.72186218588971   -1.19003809562057   -0.54697088051157
H           1.56496716108515   -0.98491527518910   -1.48831602320549
H           0.82269911516992   -1.25731449873891   -0.14902208990432
O           0.98380963428813    2.13799101013301   -1.48612434135994
H           0.10061289757374    2.03788995668199   -1.06347410513807
H           1.81986279009513    1.64385396838922   -0.37598928131749
H           1.01854680708215    1.44191386026408   -2.16930680923032
O          -1.60900129822405   -0.58280949208115   -2.08117371834617
H          -0.11696544499223   -0.36682982945929   -2.69393117425926
H          -1.38222319450574   -0.96031940837851   -1.20828901239062
H          -1.89952553021683    0.31001334078492   -1.85516899191966
N          -1.07544408065373   -1.28501414505796    3.27607258172022
H          -2.06003252654206   -0.25526394466215    2.44420503919797
H          -0.28961733549013   -0.64384471613403    3.28952499881157
H          -1.15222944689237   -1.74119346280387    4.17616880381449
H          -0.88403026697283   -1.98098510300399    2.56569945589077
