    26
        -50.46460248  Gyration_radius:  2.41102272281 Dipole_moment: 2.664
 S          -0.01123336249274   -1.36303407778760    0.30598378751151
O           0.16053976726752   -1.59859390377130   -1.13356940057463
O          -1.37398833051264   -0.99557261480454    0.63519405135277
O           0.32022983470994   -2.67668672719312    1.05028439324459
O           0.94157295291073   -0.33984882205998    0.75554507369898
O          -1.23172955718949    2.71848884563407    0.62132109628048
H          -1.46918425440325    3.56141382983305    1.00926898221713
O          -0.51054917296426    0.45120925638834   -2.38292769829730
H          -0.23619970405352   -0.47763279950898   -1.99465916376903
H          -1.44014585924729    0.63786310604854   -1.91714494508806
O          -2.49589583293846    0.83140726832387   -0.90629242351186
H          -2.23579510392025    1.62809640934091   -0.40608734074907
H          -2.27749946001121    0.07545252192330   -0.31511774617778
O          -0.68563468430442    0.91509195202034    2.43996941649079
H          -1.36738027973095    0.24875897084137    2.28553539485204
H           0.09654693702822    0.52540096254453    2.00155296538512
H          -1.04488119441831    2.09792268310250    1.38130321660165
O           0.90491675753474    1.79160645192318   -0.80396043629697
H           1.08108026366780    1.03312055140315   -0.19984477616936
H           0.14469976443319    1.09981597824185   -1.87944226955128
H           0.24276460964838    2.33579515353400   -0.33686435868843
N           2.65192546803214   -2.54588911539744   -0.07528660236387
H           3.49723323070713   -3.07884620899116   -0.23601455566806
H           2.89726777386742   -1.63885614076255    0.30309244423999
H           2.18145234171179   -2.38606474038275   -0.95959563187892
H           1.25988710466561   -2.85041879045324    0.75775652691373
