    26
        -50.45235263  Gyration_radius:  2.59653215536 Dipole_moment: 4.461
 S          -0.34708500451402   -0.36632625812868   -1.47405241570407
O          -1.74599096799999    0.00357182192166   -1.33412202319745
O           0.55511158278033    0.71535540546570   -1.12837184518998
O          -0.05433293281148   -1.57173231293168   -0.66583482783801
O          -0.07373317269681   -0.75003714247434   -2.95413505595507
O          -0.36722802078848    0.70661523736775    2.44608708355921
H          -1.08458692917498    0.45409575512570    3.02919755570812
O           1.91458954775903    2.31383153527074    2.27898651084768
H           1.07290021355987    1.86773110351300    2.46309197670369
H           2.37029513509218    2.41455390560084    3.11569809010820
O           2.72304703008296    0.59928015304257    0.33717685227221
H           2.06993141170670    0.73364570874764   -0.38755961176304
H           2.60460865631212    1.36182964488331    0.93888067785883
O          -1.40377192369965    1.91265551351212    0.42123395011705
H          -1.69839594280199    1.22217387583063   -0.21750428334063
H          -0.79966157542131    1.17656285727462    1.66175937548215
H          -0.64715641929474    2.31468465596591   -0.01862102256341
O           1.21182984592846   -1.08543970496402    1.37653099486675
H           0.66562789439199   -1.37661082509465    0.47994788419981
H           1.97627704914408   -0.44545284286063    0.98167152956216
H           0.58886881960736   -0.46712408569749    1.86148824137026
N          -2.01402179879823   -2.47459958531668   -2.69377384216527
H          -2.73818469662713   -2.95412976396048   -3.21353201432212
H          -2.43083501354649   -1.71423354034408   -2.16327610712175
H          -1.60990085767120   -3.11865444379598   -2.02533181989344
H          -0.73820194051830   -1.47224666795220   -3.11563586359316
