    26
        -50.45235264  Gyration_radius:  2.59655841557 Dipole_moment: 4.460
 S           1.20196486233768   -0.96980552334959   -0.20568305600227
O           1.27969204175656    0.44707007665182   -0.50541928318708
O           2.65497398930446   -1.49771200192719   -0.05532192543744
O           0.53575116659649   -1.19416332040419    1.09728754407727
O           0.53108382680300   -1.72796753826208   -1.24894889737230
O          -2.36540750103749    0.97716149886397   -0.26068214500353
H          -3.19346064642304    0.50008304114212   -0.33220008570051
O           0.79133149179162    2.46199259310657    1.09553895828919
H           0.21850590325851    3.02977288037339    0.54142880382588
H           1.20171747996571    1.81788201780154    0.47384218508424
O          -1.25185363749170    3.54116044921285   -0.32740040739847
H          -1.83514334739357    4.21762354768451    0.01912241860059
H          -1.76984998530369    2.72361894827090   -0.39539731066083
O          -0.81918950396395    0.71172560024139    1.83398846510318
H          -0.22320337190835   -0.16387739516920    1.57846608778618
H          -0.13186481400829    1.51595380109158    1.65891046790344
H          -1.49000091439523    0.78529152820962    1.09223478766920
O          -0.87787102876363    0.24538641466376   -2.23064605159600
H          -1.80141395948645    0.67267529890447   -1.04311227859711
H          -0.16044809657463    0.88791093655009   -2.22768054485344
H          -0.43260267166827   -0.59479078075021   -1.97112441765627
N           1.58750339295459   -3.84929621592530    0.31512483858802
H           2.51493827290162   -2.46571069647841    0.12504379898975
H           1.11288269170066   -3.70767005790106    1.19805846491124
H           0.96137190085745   -3.52542797210936   -0.41720563362214
H           1.76059243819727   -4.83888713049229    0.19177522629735
