    26
        -50.45235266  Gyration_radius:  2.59656540706 Dipole_moment: 4.462
 S          -0.76423359166822   -0.15800779377694   -1.34878378783377
O          -1.40599724941079   -0.90582571104944   -2.54942093323209
O           0.70190968559433   -0.23687565386070   -1.53888839315518
O          -1.19886005073520    1.22904129834227   -1.37120720627470
O          -1.16305433056690   -0.85000604364862   -0.13818380406655
O           1.02333517835341    1.15980209916493    2.05574467506692
H           1.45966919130735    2.01222371133224    2.09281425201576
O           0.15519619916122   -0.97557804448149    3.63839141180709
H           0.44851527991235   -0.14182348159553    3.23822119769572
H           0.71467539231392   -1.13636892842879    4.39934584119081
O           0.28180608534317   -2.44177417677841    1.35838845623642
H           0.09760803124477   -2.10119537357146    2.25706421442477
H          -0.41216799248213   -2.04747865645374    0.78150463907584
O          -1.37882889984983    1.55560822470997    1.21793856240279
H          -1.82324495275724    0.71886532578330    1.39087471919181
H           0.08521101834122    1.34259057213280    1.72483179332112
H          -1.34762724200713    1.59803244090193    0.23367429436305
O           1.92009230774914   -0.76245812415613    0.52285068525044
H           1.33255434263134   -1.58068089137359    0.89060879248862
H           1.44386476561750   -0.54457643116083   -0.43253798595482
H           1.67266133062949    0.01166645831911    1.11026684619988
N          -0.32865999512428    0.93050941923965   -4.05740247068051
H           0.65531900779880    0.72884120591739   -3.93108109061201
H          -0.61285691247015    1.53072288398676   -3.28785328693959
H          -0.45122778561062    1.42783232777515   -4.93034203812775
H          -1.10565880326337   -0.36308665723526   -3.32681941384345
