    26
        -50.45235255  Gyration_radius:  2.59668421343 Dipole_moment: 4.459
 S          -1.43066151790536   -0.56778635146278   -0.23999822549754
O          -1.05257133589823    0.10819040195691    0.98622923928416
O          -2.98122794783192   -0.54569656718512   -0.32886858439375
O          -0.93081396714608    0.17114886496751   -1.42159695273002
O          -0.97619639611539   -1.94801767403195   -0.28274468222212
O           2.56127255853924    0.02687770392317    0.23864503733490
H           3.20449225168412   -0.46388014064369   -0.27497371255301
O          -0.04610874201486    2.51133934482394    1.25703504627135
H           0.70054053981662    2.35295973651684    1.86938371833366
H          -0.60390127082517    1.70141341587136    1.30918040031871
O           2.29798766977098    1.77210523590899    2.40742935294042
H           2.54117782145261    1.12100269125756    1.73049316536357
H           3.04387944616140    2.36441767169190    2.51093201414620
O           0.90747490814444    1.70661136365615   -0.89835155923686
H           0.51121423679254    2.19249297442494   -0.02850006369502
H           1.60395261278990    1.07878316321659   -0.54300072227499
H           0.08394997878063    1.05981548514277   -1.19956390743515
O           1.01969114322797   -1.68558767798145    1.38769883204700
H           0.32441839924626   -1.94283278555270    0.73806618421639
H           1.97008657670113   -0.66621856446033    0.67802096592932
H           0.53651099763965   -1.16167148808678    2.03543751314139
N          -2.71164926762802   -1.92032368341843   -2.52979599816765
H          -2.26136477954217   -1.23995750146463   -3.12921414283815
H          -3.17656391831271   -2.60893069392846   -3.10790240014829
H          -1.98018378044816   -2.37548281211383   -1.99027537370040
H          -3.15540619708319   -1.04077208302407   -1.17376512443770
