    26
        -50.45235262  Gyration_radius:  2.59649681731 Dipole_moment: 4.461
 S          -0.68163150959237   -0.44493669891989   -1.32845406033875
O          -1.47228532565178   -1.48076919307204   -0.68403699401836
O           0.74083775071570   -0.59689926117863   -1.08982523505318
O          -0.91034660038234   -0.51886500448904   -2.86297638986210
O          -1.14543199376794    0.89351338987243   -0.89787480621104
O           0.48833984589253    0.11805027146228    2.52281353068668
H          -0.14116477505657    0.09048952581346    3.24486763869108
O           2.47275904069627    1.25749091595481   -0.43932575706873
H           1.98051692862583    0.52701582599631   -0.87967128143117
H           2.95460099133990    0.83708135944318    0.30135290283744
O           3.22276063023605    0.20204152171074    1.94556466068708
H           3.73385439366673    0.68346810075498    2.59742335822743
H           2.32470091160449    0.10567376726414    2.29985273646632
O           0.37394371165414    1.98163017654174    0.68903360062243
H           1.31386372888906    1.81712597743069    0.19987018251792
H          -0.33633750207213    1.56668579586883   -0.02536108029696
H           0.36935429687940    1.33362514486342    1.45431236860331
O           0.24357781994201   -2.07631831213229    1.19849943332197
H           0.37212812224105   -0.75190583428600    2.02014308992831
H          -0.50556942899595   -1.96149757565885    0.56830779552141
H           1.01743795586684   -2.08610115622399    0.62524459819307
N          -3.45344850938238   -0.28579066800868   -2.32962538974902
H          -3.20565199736729   -0.90267323901876   -1.56065174558760
H          -3.48606264342849    0.65560503542860   -1.95863252154009
H          -1.89810571516737   -0.42954007155844   -2.93794552345931
H          -4.37264012738428   -0.53419982388693   -2.67290512173176
