    26
        -50.45235266  Gyration_radius:  2.5966356124 Dipole_moment: 4.460
 S          -1.49630202117975   -0.43402552319973   -0.02461640935762
O          -2.98773384147562   -0.40106794752849   -0.45706153389958
O          -1.36467357842945   -1.28309897545749    1.14800772099015
O          -0.74163401886241   -1.01109760740626   -1.16010654356230
O          -1.08245640957610    0.93334667458191    0.22509559441531
O           2.46992084634011    0.05652334934698    0.71795746903455
H           3.02654436923706   -0.68304259678484    0.96615390362748
O           2.42263768444714    2.84434599932723    0.50617694640708
H           3.27176939596430    3.22203633936632    0.27315299745262
H           2.56936107730262    1.90389013393140    0.69419739311855
O           0.41708946836745    2.46383300908097   -1.28190670362193
H          -0.31278736565146    2.07891375158294   -0.74443674081214
H           1.05212723901992    2.83047194828753   -0.63395868751702
O           0.48548419473240    0.11585108340489    2.35732848059042
H          -0.19085374012612   -0.52153833801375    2.02892045247284
H           1.70083028734246    0.05738044554280    1.37482440327555
H           0.07966520834361    0.97422550115979    2.19597887262272
O           1.34575779652103    0.18120798366310   -1.64207789486507
H           1.84783559166061    0.07262912912711   -0.78085117724380
H           0.42586072357252   -0.38429791536651   -1.49630196164787
H           0.99655548123149    1.19493844794620   -1.62660071427267
N          -2.84643236108933   -3.00427286292770   -0.55650046668994
H          -2.20266338622311   -3.13277402149164   -1.32720691849531
H          -3.19604084965869   -1.36496979759779   -0.58622421273470
H          -3.40234525634512   -3.84354461573106   -0.45113793157950
H          -2.28751652545769   -2.86586358482825    0.28119366230262
