    26
        -50.45235265  Gyration_radius:  2.59672455807 Dipole_moment: 4.461
 S          -0.63784227517822   -0.91227851485983    1.09048493891395
O           0.04419811125550    0.32736106980165    1.40898334912385
O          -0.69479479170198   -1.76318293752493    2.38864469610979
O          -1.99228668843085   -0.69941273027962    0.60731334624788
O           0.13792292726197   -1.69930206704269    0.10524692550985
O           0.15502049434010    1.48465003772350   -2.09536863083522
H          -0.29731447573214    1.36898698181552   -2.93227103376583
O           1.86271939415503    3.20327365059944   -0.69916750735785
H           2.49136604451645    3.65483518730560   -1.26385484769164
H           1.23148419090975    2.74911688634314   -1.27936103877260
O           2.49245763071304    1.02415672068372    0.79055483563565
H           1.65480320563499    0.80464822889195    1.25953219148571
H           2.36639958364860    1.92998498648813    0.44258268972584
O          -1.64514926149584    1.73948225333297   -0.27215213661000
H          -1.15309340265140    2.05070777920404    0.49500808827446
H          -0.57164341529857    1.58195129605155   -1.39871038540463
H          -1.93110122579777    0.83398431723503   -0.00776023040620
O           1.75902076599434   -0.35446146152973   -1.14946997287869
H           1.07432618221948   -1.01545557737278   -0.61872913892170
H           1.16404899411880    0.31137532839529   -1.60569326239272
H           2.21537725285336    0.19366219557476   -0.34870942671921
N          -2.02963867825162   -3.51315100440832    0.98794285527463
H          -2.45322240887707   -2.67348139444972    0.60227612569806
H          -1.31993431948956   -3.81750554920493    0.33329956832880
H          -1.18904706366498   -2.57418075166931    2.09320647782417
H          -2.73407676109582   -4.23576493111943    1.06617153359182
