    26
        -50.46814494  Gyration_radius:  2.48499493134 Dipole_moment: 4.352
 S          -0.98071148798928    0.96085826464015   -0.24770614122404
O          -1.00637597922158    2.11218538248517   -1.11319667991238
O          -2.26463651025851    0.95252431716780    0.59394187340721
O          -0.90837370465377   -0.29354944542616   -1.00860417199905
O           0.16212520004828    1.01229844213735    0.69324315513085
O          -1.00475050604395   -2.51647911609824    0.36237432687382
H          -1.72676119353674   -3.04912900369082    0.02460948312866
H          -1.01795807564096   -1.67683191509678   -0.15867442650339
O           1.22783212196655   -1.79491926802684   -1.54321070570064
H           1.08643170643940   -2.47007615594678   -0.87207808209703
H           0.38793488810046   -1.28855625412626   -1.55864446139845
O           0.19901414593553    0.43631571792047    3.28549472628624
H           0.27923595128483    0.68825050557421    2.34189898569999
H          -0.03238138772927    1.23832685420022    3.75685099934702
O           0.98737258450103    1.97650601991201   -2.76694196265909
H           0.63711730823541    1.48550206861599   -3.51297522486540
H           0.20637830011230    2.15771695781004   -2.18129066465498
H           1.88205349375946    1.16608133826231   -1.70196136573903
O          -1.93310646452096   -0.89492750595118    2.32155594424058
H          -1.56372328679591   -1.62860890279404    1.79149606299609
H          -1.18784397017496   -0.54618233767781    2.85374834087700
H          -2.18474335159913    0.21810102318377    1.29326556666009
N           2.16985964964779    0.58393181317574   -0.86537501792390
H           2.05530007030890   -0.42979999316338   -1.12015975166289
H           1.42547542016336    0.79276480107233   -0.12316578824981
H           3.10523507765845    0.80769638184185   -0.54449504005820
