    26
        -50.45235255  Gyration_radius:  2.5967001375 Dipole_moment: 4.461
 S          -0.45889513154538   -1.40071359715953   -0.50546886255402
O          -0.57715298416082   -2.94940497045681   -0.51443642187287
O          -0.96158111444175   -0.88284954222991   -1.76745934193027
O          -1.29989260910056   -0.92088810211627    0.61458507421977
O           0.93493794584158   -1.06916766736180   -0.27989710521614
O           0.30141642604665    2.55452809727675    0.04362146907652
H          -0.33254673557341    3.22530814605909   -0.21431386866117
O           2.93083378750870    2.18614834403000    0.92028245438621
H           3.25244875061770    2.90266641921365    1.46902935108919
H           2.07780767564623    2.46720308783115    0.55329388791124
O           2.04335501169445   -0.17600330609763    1.91875670262901
H           1.79823287024369   -0.69681167379286    1.11963885445735
H           2.58328243962822    0.56994933304937    1.58777301214853
O          -0.23099623982844    0.83824307760904    1.94634253423369
H          -0.09527917103921    1.55888936430592    1.26244231468273
H          -0.75837498007516    0.04902504629263    1.41135941876100
H           0.74221888198466    0.41004206316731    2.08580726557969
O           0.74968335370730    1.07948456472557   -2.01857184629482
H           0.45964920212931    1.99064331026724   -0.78096634632111
H           1.52502260205914    0.56530331366605   -1.76963358820675
H           0.03294995012642    0.40423886607394   -2.06308364006106
N          -3.10829345849616   -2.59015800124462   -1.03439001611341
H          -1.54526205846490   -3.09021194379979   -0.69417618284665
H          -2.73834485781114   -1.84544460095662   -1.61910116411857
H          -3.90029945729773   -3.01602718978974   -1.49904071181327
H          -3.42492009938578   -2.16399243856149   -0.17239324316765
