    26
        -50.45234173  Gyration_radius:  2.54413064571 Dipole_moment: 2.495
 S          -0.06580421382916   -0.49142643405265   -1.52291848796326
O          -0.25037637370748   -1.05317727537304   -2.95563054918148
O          -1.33288384186752   -0.75211423287623   -0.80139116884303
O           1.02602704176866   -1.20304915680370   -0.87613613873164
O           0.18098774210652    0.93046625489446   -1.63502013734143
O          -0.13035417567636   -0.19050389546943    2.75676839626971
H          -0.16417898486739   -1.12731212964401    2.95515559670201
O           1.49601541966687    2.51688736601740   -0.11073380858269
H           1.03554431284694    1.90079184235300   -0.74382613090178
H           1.95053289592670    3.15905471686966   -0.65825194023514
O          -0.82358562538448    3.01417143066482    1.11201140120251
H           0.03247985574720    2.92112482994362    0.63436877514196
H          -0.60542186667718    3.18351850275328    2.03133924003066
O           1.93430859620714    0.10598407991026    1.23240884709637
H           0.71802520508310   -0.05134960750739    2.23419599667864
H           1.69878131551295   -0.44373944233791    0.45181300701889
H           2.00348926921049    1.01050112145516    0.89475704410809
O          -1.87030970503724    0.66619233841236    1.11623251806236
H          -1.66842379663450    0.07220815580457    0.21361218182775
H          -1.23890622573080    0.28244423893897    1.83276614021954
H          -1.55206711850506    1.62313286401639    0.98392931592293
N          -0.50194374034203   -3.38622363804702   -1.82318500024168
H          -0.35020689259598   -4.37234764672677   -1.99228106464932
H           0.24539272094597   -3.02568157243431   -1.23627715783705
H          -0.39720688553146   -2.02069759725150   -2.77776162942410
H          -1.36991490864654   -3.26885511352407   -1.31594524640107
