    26
        -50.45901903  Gyration_radius:  2.46804349548 Dipole_moment: 3.250
 S           0.64963976786985    0.86881108512407   -0.84073991809793
O          -0.47109820137902    0.18633693819599   -1.47366913996450
O           0.29661938972550    1.26405249174225    0.53235837925583
O           1.85735054177077    0.05895036602930   -0.84117820404496
O           0.90321449874668    2.16761135577887   -1.64354273945290
O          -2.52518377176608   -1.36717892171467    1.11848490450163
H          -3.21088371241391   -1.36739552997583    1.78825163076574
O           1.29403794884382   -2.12622766989564    0.46519383298457
H           0.58826322035557   -2.49497446668483   -0.12758203438978
H           1.68662626266633   -1.38153878598688   -0.05835532804522
O          -0.86349764293237   -2.44065223094522   -0.99479965134354
H          -0.74049481129381   -1.54209608280135   -1.35772734510949
H          -1.59669951566237   -2.37640661403808   -0.37157649190214
O          -0.12443475135796   -0.74221638929657    1.93199596936743
H          -1.06283907602679   -1.01503307763609    1.68976767387652
H           0.55384027734077   -1.43802263495894    1.37998322632022
H           0.04279705683413    0.16547896000187    1.42837244484341
O          -2.87697392247658    0.60361823038431   -0.55777840410233
H          -1.95129137694012    0.59270473447907   -0.90185310643510
H          -3.43890908468118    0.48927517086842   -1.32681648390994
H          -2.72320027336285   -0.60307308692812    0.50848319905836
N           2.87201329169057    2.58265817553863   -0.00261616154405
H           3.06518103846459    1.59409883999954   -0.13201552356285
H           1.68191248896293    2.55803899629402   -1.15691190980343
H           2.34839668196162    2.67709040757456    0.85880953084439
H           3.74561368504791    3.08608974882557    0.08546165989050
