    26
        -50.45901912  Gyration_radius:  2.46787665153 Dipole_moment: 3.244
 S          -1.26476819910519   -0.28716444591408   -0.44834584228489
O          -2.41518677122026   -1.12585117563581   -1.05601903835133
O          -0.62526120739310   -1.10853547718799    0.59194132329319
O          -0.32223103873537   -0.01085664963624   -1.52436696022564
O          -1.81032256881001    0.93048095121697    0.13010369321628
O           3.07348971478768   -0.13130537284579   -0.18200588864345
H           3.87823758029963   -0.57781569805962    0.08592694038294
O           0.21271768130770    2.29457529337857    1.04752517943785
H           0.69828130346336    2.46098553747017    0.19758429950521
H          -0.66427831382422    1.93237249903048    0.75969680582115
O           1.44568581715473    2.00981935024496   -1.25044164838964
H           0.76887908086993    1.36135712474027   -1.52556961621967
H           2.23626313763512    1.49663512189550   -1.04595381764900
O           1.23932987670064    0.13788780780591    1.65696338483325
H           0.46727602158402   -0.46654384988122    1.27900668649307
H           2.00079502913085    0.03962613595871    1.00585701273604
H           0.82440748088731    1.16478366651406    1.49751960037200
O           1.71297466070938   -1.60873585306755   -1.85084723479886
H           0.86094893338889   -1.12696321562352   -1.71964607641809
H           1.89131728851906   -1.56500704193970   -2.79241441639591
H           2.61019266182968   -0.73943408650845   -0.82274506786763
N          -3.47733531688098   -1.05031113412918    1.31204927089914
H          -4.36132450789104   -1.14615262878015    1.79543847225129
H          -3.01083812627290   -1.25528962431822   -0.26610141257770
H          -3.20430295899179   -0.07222493941825    1.30145250801059
H          -2.76494729913974   -1.55633227528860    1.82339186257094
