    26
        -50.45901907  Gyration_radius:  2.46803494192 Dipole_moment: 3.244
 S           0.52775928267958    0.70894162659619    1.04923129595900
O           0.55333283485690    1.67077074349733    2.26186249700607
O           1.89170600126453    0.41437511722966    0.63958790313873
O          -0.19200652895322   -0.48688976386700    1.46694712411392
O          -0.19881075030966    1.38921021834192   -0.03488667412862
O          -2.19351296416121   -1.70349451653518   -1.33599487692270
H          -2.97192284542287   -1.72065585643708   -1.89507951441675
O           1.72963518737201   -1.26645171492606   -1.34673986758932
H           1.29865800996235   -2.03026459254831   -0.88137826754929
H           1.98836094642433   -0.65013606698851   -0.61449580015255
O           0.10544427194484   -2.77132963208707    0.06070695051844
H           0.03428348397513   -2.06000849371610    0.72642861169788
H          -0.72669742174495   -2.76176620128687   -0.42676070948561
O          -2.75028826048110   -0.64446165312785    0.98498125972739
H          -2.47524266397430   -1.30134500137808   -0.46768265477399
H          -3.08594869646501   -1.19073674642919    1.69857089649323
H          -1.81100952761770   -0.44946274543296    1.21949267710658
O          -0.29882718232004   -0.05550008208516   -2.05140728047420
H           0.65124463431266   -0.61518724483319   -1.86459673942426
H          -1.04669072939254   -0.69947350004236   -1.85254171615344
H          -0.30238137185798    0.63271343147936   -1.25706834234679
N           1.93771168604391    3.25805699381733    0.74332243862764
H           1.24457595251559    3.44486341345335    0.02927668326122
H           1.06856864830674    2.44340382146594    1.89693348741194
H           2.43204987457007    2.41370749147193    0.47108520489687
H           2.59000812848067    4.03112095439434    0.78020541348435
