    26
        -50.45901923  Gyration_radius:  2.4678119077 Dipole_moment: 3.252
 S           1.36045144641572    0.05652755228283    0.17738311205667
O           0.96632270058381   -0.01216161782447   -1.22351459276883
O           1.29516854976033    1.41163045061331    0.70091528619778
O           0.52710827635037   -0.84753815472557    0.98646075025881
O           2.81778697193022   -0.45725055076812    0.26538557789134
O          -2.54430279868337   -1.00754396023758   -1.41614853821074
H          -3.25782826120386   -1.64744235901988   -1.42974566319275
O          -1.14372018124362    1.43862104466730   -2.07686960834213
H          -0.28808308790896    0.99285838020984   -1.92393776463674
H          -1.80220209011923    0.73615246449568   -2.13170001051148
O          -1.17527271074346    2.20100920535535    0.43375525039163
H          -0.20598672600876    2.08528634974054    0.60682926091465
H          -1.25105898927137    2.17162110610016   -0.55559230007259
O          -1.84515490592597   -0.11779790848165    0.93667972683057
H          -1.64922827930203    0.97199802290147    0.78316568600852
H          -2.18879472324823   -0.46722933281521    0.05720886094576
H          -0.87038437750084   -0.50040739615408    1.02914577296901
O          -0.28407008943352   -2.13696065392259   -2.07427790446669
H           0.28439906525679   -1.42699910569387   -1.68944665304440
H          -1.71793159782759   -1.49690062535687   -1.68613168729951
H          -0.02678100298773   -2.20140368367649   -2.99619938577767
N           2.65260337631971    0.05743385344598    2.80476853832169
H           1.92047304694239   -0.59731849374314    3.05066001861336
H           3.21849544208759    0.24214968496608    3.62331873066419
H           3.00674022306170   -0.36541109370234    1.24074978787371
H           2.20125072269131    0.91707681139595    2.50713772840013
