    26
        -50.46405129  Gyration_radius:  2.4119536644 Dipole_moment: 8.300
 S          -0.84435211082664    1.30761125273109    0.89240136454335
O          -0.10814606822239    1.81063009541945    2.15056891528601
O          -2.19945527668755    1.79487604947864    0.91346919413409
O          -0.10071920967645    1.80630292367390   -0.29200348366075
O          -0.79330373315621   -0.15370670114711    0.87797626016313
O           1.13322289569665   -1.81412740660302   -1.25070442729494
H           1.56467448370335   -2.59325959265334   -1.60379760063092
O           2.11812829890221    0.50159196346852    2.09086933679425
H           0.78607915674839    1.34699860308095    2.19113459726380
H           1.88048310848653   -0.43647662191861    2.11012880167883
O          -3.27688580719836    0.17439562212881   -0.83653596045815
H          -3.98478073584660    0.70360035231150   -1.21045550806756
H          -2.93207873928525    0.70177932681342   -0.07348404550201
O           2.34017589575665    0.74360556318707   -0.56394293378805
H           1.52538382953296    1.28165330675121   -0.51952143719130
H           2.41975763091966    0.66710011398002    1.16927825087150
H           2.07066041841739   -0.11790218835284   -0.90766369409037
O           0.90827462158426   -1.95572277907496    1.41418064565188
H           0.21939693844001   -1.24234774115232    1.27851491726430
H           0.46345607468129   -2.65653506958450    1.89279890205665
H           1.08269385555604   -1.93635231995406   -0.27371715253687
N          -0.85597378376531   -0.00630990614720   -1.92649180236801
H          -0.49078673414398    0.82256202671709   -1.32359700030827
H          -0.26287399734106   -0.82163647339494   -1.69514060427407
H          -1.84446372695156   -0.13207123081427   -1.58549924383645
H          -0.81856728527799    0.20374082096350   -2.91876628164918
