    26
        -50.46405127  Gyration_radius:  2.41189148125 Dipole_moment: 8.298
 S          -0.72934615735411    1.53014081757418    0.58742494281959
O          -1.51397567531699    0.90093027372479   -0.50482790297022
O          -0.08559706821637    2.81141282519456    0.02007536246076
O          -1.56348168681154    1.87888014263415    1.70848100530467
O           0.33675058379719    0.60571535679588    0.97094943923876
O           0.99146851655855   -2.13166758372860   -0.78155322067368
H           1.50523688992300   -2.90169017381624   -1.02832335458502
O          -1.81478024216588   -0.47713739075811    2.81943090722071
H          -1.62158652953776    0.44092491478986    2.50446500134043
H          -2.67557772691055   -0.42427735135496    3.24043986173002
O           1.63807674550427    1.90225770956265   -1.67567443457017
H           0.59976207971242    2.53508597208497   -0.66575017704831
H           2.24043049375165    1.33678310487213   -1.17142831698002
O           2.57550133213312   -0.13342545383730    0.03746895004505
H           3.20082285940394   -0.18713511617315    0.76147805892403
H           1.63456845014316   -1.44371956245720   -0.48988610917059
H           1.72869731717022    0.21947621687978    0.43791557499411
O          -0.01446533196824   -0.02503981884624   -2.51855328245188
H          -0.67472518462632    0.36222938231140   -1.91070206990109
H           1.08765960661939    1.27948212878623   -2.20178199254611
H           0.30826082107262   -0.82526035646227   -2.08436859727798
N          -1.43856184064473   -1.49155826504046    0.38826728009966
H          -2.15855619849906   -2.13679430639684    0.07935672559253
H          -0.49678008092550   -1.83143619402783    0.12845042219230
H          -1.55065576460477   -0.51093074286879   -0.06960804214788
H          -1.50914621822363   -1.28324652949350    1.41825395833528
