    26
        -50.46405127  Gyration_radius:  2.41187362892 Dipole_moment: 8.300
 S           1.53481469033699   -0.88354606639430   -0.28543192099560
O           1.28751158293722    0.17952716870035   -1.29200112887258
O           1.86980326151821   -2.13809850452345   -0.90837155875500
O           2.71572122651640   -0.42637829679431    0.59451096222191
O           0.34484922675860   -0.99645963695807    0.55693003310201
O          -2.13919470219146    1.19104933279265    0.37735751130342
H          -2.95436797088274    1.60264744398100    0.66714792040388
O           1.74000644711879    1.58344969359870    1.89123111977106
H           2.41150661643301    0.37219635054550    1.12944312543211
H           0.97863130708285    1.24331436304088    2.38264690399141
O          -0.52151611409944   -2.92883137280247   -1.61876245336362
H           0.36948694202296   -2.72466655557326   -1.23954859114104
H          -0.34864260385290   -3.45725690875028   -2.40097994890182
O           0.39760798327457    2.47528574819839   -0.24378794876682
H           1.35213309506146    2.11880948514506    1.16285843865984
H           0.81596902420769    1.74095208287286   -0.73483519160282
H          -0.51523474328274    2.20220637545812   -0.08533675547150
O          -0.70888174210651    0.30472107359217    2.46120520748224
H          -1.66987087219856    0.88901656279151    1.19002062472049
H          -1.02035914975117   -0.32045738381086    3.11711756683906
H          -0.24758755049691   -0.24433603093983    1.76280133554536
N          -1.17575877556569   -0.35120774956356   -1.71428095575031
H          -0.13282237987521   -0.05372761382786   -1.62789091860709
H          -1.13116833386227   -1.40091510208801   -1.64103943446315
H          -1.66920052203346    0.06975100608486   -0.90841488647307
H          -1.58343592313462   -0.04704544476595   -2.59258906632139
