    26
        -50.46278495  Gyration_radius:  2.54847642016 Dipole_moment: 6.690
 S          -1.11927831935486    0.52426262903115   -0.06489801703570
O          -1.55783973335650   -0.74354790650297    0.52868468857495
O           0.02693610328198    0.28181830761155   -0.94519900842545
O          -2.29329242996215    1.00402803596940   -0.95818459365659
O          -0.83746820721669    1.54349836916282    0.92527794109508
O           0.63612336145994    2.54743477030823   -2.17991546564172
H           0.50412134343087    1.69746080375883   -1.70738186529376
H           0.60703290089247    2.34021025032249   -3.11540885105968
O           2.31874815462999   -1.25323657498617    1.81422359689932
H           1.48631857891073   -0.87355385399758    2.18588517847638
H           3.01964486036831   -0.66123351830872    2.09111326808404
O           0.05349714743757   -0.17947117808247    2.70956858232061
H          -0.16470185693057    0.60834056171536    2.17129711970910
H          -0.69744064820862   -0.76092280739249    2.55928545789131
O          -1.52165384342200    3.44682382716219   -0.84757150695890
H          -1.22286752916367    3.20310432475126    0.04186560588579
H          -0.72101500075645    3.38196067862754   -1.40820220236671
H          -2.15151744038431    1.99466561580865   -1.02192132124027
O           1.82299685658182   -1.62985322242273   -0.76098730208026
H           2.16698965603897   -1.50389338075451    0.15586674322711
H           0.65277344628138   -2.45535961641946   -0.51944193558853
H           1.30889747437361   -0.81341854751248   -0.94888253475996
N          -0.34498287489665   -2.87082278290940   -0.24761067509453
H          -0.26764954473139   -3.52281193919263    0.52632673880258
H          -0.79478934179882   -3.30976755623557   -1.04364558895263
H          -0.90958311348926   -1.99571525950527    0.05985592717920
