    26
        -50.46405135  Gyration_radius:  2.4119909611 Dipole_moment: 8.300
 S          -1.76327395492123    0.07676387680784    0.32244153272947
O          -2.57723371789868    0.76236698587752    1.29279237325858
O          -1.12430247638796   -1.13287291416308    0.89944034857007
O          -2.65452547265901   -0.38122555196154   -0.84975590415073
O          -0.70750096220322    0.93907809642830   -0.20676224321187
O           2.44148356337652   -0.08191900384217   -0.41541474770192
H           3.35647786987459   -0.01966448415477   -0.69250387321046
O          -0.70675460224314    2.00703538570222    2.63465012972824
H          -1.08488424159144    2.07757287250273    3.51386853155994
H          -1.43838158617811    1.66536052506205    2.06258997720413
O          -0.94365017227691   -1.20246571954877   -2.60257119635986
H          -0.37467878022337   -0.44469705133622   -2.79985696982321
H          -2.05131643078887   -0.72974828461753   -1.57844205268924
O           0.80133259633398    0.98471753841906   -2.24427362829502
H           1.90047540410016    0.32942683100248   -1.12961471508021
H           0.15107318775771    1.00128562361837   -1.48348622876828
H           0.84549305021232    1.88628931213548   -2.56576307181688
O           0.61797295884757   -2.32681144080499   -0.74406715970224
H          -0.38346991762801   -1.80592139756665   -2.06441514895944
H           1.34866346654917   -1.70457154535721   -0.63507403447745
H          -0.06377474496510   -2.05580226126000   -0.09825781093229
N           0.91833165087071    0.03310621568802    1.89722128219621
H           0.46026728196369    0.93067050469597    2.20343456119741
H           1.40232455993494   -0.42807611556283    2.66089335881640
H           0.08125057909882   -0.55880272754273    1.53286257047837
H           1.54860088102409    0.17890469980099    1.09006410944168
