    26
        -50.46893904  Gyration_radius:  2.40457152199 Dipole_moment: 6.282
 S           0.05223667573481   -1.76104562682065   -0.45951431874046
O          -0.02778042551729   -2.49467098640735   -1.69502340498762
O           1.14138743230135   -0.65352563432736   -0.74225720953216
O          -1.19908831908059   -1.00631840178636   -0.19940153387366
O           0.45405224034623   -2.49702882560445    0.71563909427086
O          -0.20456501183285    2.40622680117647    0.46774979988229
H          -0.38458485858571    3.29132862009734    0.78636904265677
O           0.49168555297147   -0.57497447334004   -3.38704955831107
H           0.25491368743629   -1.38369412365254   -2.86295600198708
H           1.44211360968102   -0.49327719082853   -3.27818499799652
O           0.40874269467603   -1.01629917542491    2.83764734404919
H           0.74677635405318   -1.54857556402292    3.55933025929741
H           0.37685158919404   -1.62612869273620    2.04961052575889
O           1.84135650515206    0.70721365705092    1.33045505400357
H           1.40167352686391    0.18991764269896    2.03378358093057
H           1.48105342102019   -0.20277570022634    0.08566859662058
H           1.26299379302430    1.45809915999834    1.12100592415930
O          -1.54815861861134    0.64255280239454    1.83400561096479
H          -1.60779811360507   -0.03190018576746    1.12454763455893
H          -0.99299662728950    0.21237932406007    2.50097467830209
H          -0.77212686789874    1.78824787602610    1.01716392892889
N          -0.93080001010515    0.95793120537336   -1.78775483112945
H          -0.47478125231108    1.65722587036441   -1.18047446668057
H          -0.27720924485196    0.51726194781960   -2.50230344356158
H          -1.17654766326112    0.12194243619295   -1.13770182259820
H          -1.75940006950694    1.33988723769314   -2.23132947498544
