    26
        -50.46893907  Gyration_radius:  2.40454701493 Dipole_moment: 6.285
 S           0.69993882821608    0.07787861736553   -1.67889862118150
O           0.45686683502301   -0.61350311293907   -2.91742494403866
O           1.87854693466554    0.90898918703339   -1.61195985447078
O          -0.49843641933657    0.83650435494872   -1.24151221004384
O           0.85484563152019   -1.08091111588958   -0.61767869451127
O          -1.12713342254439   -0.14761772736284    2.18102506851238
H          -1.55751362648008   -0.02826364296447    3.02829299234556
O           2.05003102618028    2.15103384944117    0.65204748467438
H           2.88267042014161    2.62553051027084    0.65021435726734
H           1.97893288514610    1.73497003353453   -0.25107105859696
O          -0.83293477983703   -2.69794794959483   -2.01738549172820
H          -0.10869685153505   -3.21169763813443   -1.65212300392555
H          -0.38592585262904   -1.95122695637909   -2.49419625912915
O          -0.67710799255849    2.15097851775319    1.04220870910682
H           0.24403738547215    2.42880683607859    1.15346825032518
H          -0.70267402461782    1.82772114063586    0.11668036522622
H          -1.01127766169265    0.76951424123514    1.79216938642619
O           1.62593209618482   -0.29617887706828    1.71197207610626
H           1.85535538846011    0.63337432068863    1.51430791315211
H           0.73081433822365   -0.29826934733595    2.08727613775882
H           1.25367974537325   -0.77975028069290    0.25080777329553
N          -1.95521687138460   -1.02866980824564   -0.31870905734097
H          -2.96121584338295   -0.95946462466293   -0.42993546161704
H          -1.44588698118138   -0.17456433631276   -0.75796786710169
H          -1.68750977333912   -1.02889733315094    0.67839895456497
H          -1.56012142408985   -1.84833886825693   -0.87000693507045
