    26
        -50.46893907  Gyration_radius:  2.40453639953 Dipole_moment: 6.282
 S           0.10145001825325   -0.93588898049017   -1.55846676464792
O          -0.67116195593187   -1.98520479024430   -2.16919463429663
O           1.37412080397008   -0.62126075485681   -2.16301827972509
O          -0.70880362916109    0.29470225516675   -1.37888571993817
O           0.36945299947812   -1.46119029173170   -0.09386145300451
O          -0.34155493914185    1.25287400635997    2.08903485148515
H          -0.43127898749680    1.88237395606376    2.80527542756790
O           2.53101895409918    1.37077115336466   -0.98373166771732
H           2.08265019229016    0.64236675736012   -1.49593168217685
H           3.39165622564290    1.47770140368355   -1.39153352742840
O          -1.97122135087839   -2.85519712815492   -0.07848145682366
H          -1.28321551622896   -3.35946048893378    0.36223713276041
H          -1.57072847274080   -2.60836723665569   -0.95224838418191
O           0.14599564798726    2.47518577761160   -0.15832045447270
H          -0.24962460321970    1.79737022476228   -0.74640924591762
H          -0.18406956914782    1.79212060824387    1.25820437077547
H           1.08719411184079    2.44086916998424   -0.38419786720438
O           2.01028237208441   -0.01939081764992    1.27215016675095
H           1.30919618099051    0.45370019975991    1.74846721468571
H           1.08555029131763   -0.95441974720082    0.39033778523212
H           2.33950890314783    0.57839564652130    0.57218621205954
N          -2.11095345406791   -0.32791475427393    0.64578421986361
H          -2.09165848109146   -1.38758968579965    0.55294974305119
H          -1.61970916026247    0.00316984341135   -0.26575985111912
H          -3.06201507597938    0.02054354715901    0.70313223270307
H          -1.53208151575267    0.03374011653879    1.42028163171895
