    26
        -50.46438285  Gyration_radius:  2.63054752747 Dipole_moment: 4.457
 S          -0.01144309587102   -0.45552752643707    0.45158963224317
O           0.59175556779711    0.75167115945293    1.01169883527783
O          -0.42087849280468   -0.22876018196087   -0.94516567838502
O           0.89213942869542   -1.58474960761047    0.55710124434768
O          -1.28909465139108   -0.76975981245446    1.26932628314919
O          -2.93689081232511    2.71190803712625    0.64696628030100
H          -3.70170654863301    3.09044379997355    1.08310075824799
O           1.73837668338316   -3.09653359998769   -1.40351963767306
H           1.31429989093838   -2.65488509546313   -0.62804462735774
H           2.34762204202522   -3.74087722423737   -1.04015312877501
O           3.00226156110042    0.36068590760899    0.08934769793836
H           2.15148052250363    0.66938696082638    0.48548605929048
H           3.23297696400011   -0.41222017501876    0.61158455586419
O          -2.98793144372582    0.22813816183883   -0.32633245912899
H          -2.26419458636426    0.19169070867661   -0.96987052603978
H          -2.06785316228572   -0.42992460478081    0.70982596004390
H          -3.06132875354278    1.17329080583649   -0.05434949439639
O          -1.27594306794619    1.83688129758372    2.54954983336028
H          -1.64220560349469    1.01307843214033    2.88222172866209
H          -0.49609716128459    1.56558062775843    2.02194180402077
H          -2.28336500599939    2.51343092465806    1.35807170505360
N           1.85465638802555   -0.53823891161513   -2.11350724561530
H           2.02921813903856   -0.13326793498332   -3.02650045736272
H           2.46389923207046   -0.12298706407653   -1.35018214439725
H           0.85237469377480   -0.36185086805626   -1.77106898630736
H           1.96787125236579   -1.57660419680084   -2.09911800235553
