    26
        -50.46570680  Gyration_radius:  2.62466989053 Dipole_moment: 5.296
 S          -0.45250135221881    0.51279644915542    0.15423065560836
O          -0.83837482634019    0.01454638951739   -1.27893255230057
O           0.06728344885620    1.86284620617647   -0.04040427624736
O          -1.62079259086930    0.44128370807927    0.99895147206078
O           0.63071268864726   -0.37734426826628    0.60336463014562
O          -2.28807280620338   -3.33612424931947    0.54468045981012
H          -2.94827557541642   -3.84046393160528    1.02253885582299
O           1.18932854510068    1.53727406130735   -2.40806751649389
H           0.68459655135689    1.83660318379768   -1.61871308684016
H           0.59637082528345    0.91738512331273   -2.84183420279204
O           2.37865962231266    2.78607580190082    0.85876475478502
H           1.44533133791957    2.52715431517376    0.68689522032320
H           2.46412414703578    3.68456667153106    0.53467719848617
O          -0.95946942359113   -1.80420567113470    2.27322928683539
H          -1.75191343456678   -2.86731493169327    1.22935206823458
H          -0.07827036895583   -1.68331088000564    1.89654862235128
H          -1.39034020136359   -0.95714731020830    2.05847333293713
O          -3.05194568809741   -1.08347330996681   -0.68695076187083
H          -3.01135314191902   -0.50986534482991    0.09344815109207
H          -1.72073621229338   -0.46847002123741   -1.18313382779910
H          -2.83248446992893   -1.98795757383482   -0.36299092967065
N           2.74316693667076    0.54056533896615   -0.51805445880784
H           2.91156233375712    1.40759291019142    0.04425483176686
H           1.92311577540623    0.04469466314391   -0.01553700970773
H           2.34442428518499    0.84775880307024   -1.44325703571781
H           3.56585358422512   -0.04546610321710   -0.60153387200450
