    26
        -50.46570668  Gyration_radius:  2.62462236561 Dipole_moment: 5.298
 S          -0.05556430044069   -0.63736431731501    0.28569128625296
O           0.01425688814234   -0.66015071009929    1.74352332916495
O          -0.62357293071629   -1.82759626014606   -0.30112426566733
O          -0.72679786417648    0.59428632679480   -0.16109647515207
O           1.42961411186665   -0.50273464063319   -0.19110118427954
O          -0.01578820385976   -0.85991452710125   -3.99011907339760
H          -0.33490464242974   -1.35205395316624   -4.74815808405024
O          -1.37021877470931    0.87848302419659    3.39262890323660
H          -1.07636438741097    0.66858730296621    4.28096187903370
H          -0.99863592924923    0.17465504755446    2.81452551363089
O           2.08290019166306    0.94450222795295    2.08491663929511
H           1.42070989232895    0.21732502370188    2.09725060456677
H           2.63857514744027    0.74027661698706    1.32758056819292
O           1.34235772559322   -2.18106280088597   -2.09670654489074
H           1.53187127797163   -1.12589756331912   -0.97984737473567
H           0.56913626481874   -2.52427525478564   -1.62330556568167
H           0.98260319756207   -1.69510070222102   -2.87487741057788
O          -2.00094129391860   -0.60985755125425   -2.23056264614678
H          -1.82856977315124    0.21061325087457   -1.75097708667495
H          -0.80357297249801   -0.69807549024011   -3.41628381736261
H          -1.70021815523070   -1.28436108475643   -1.59497194627661
N          -0.09416407162421    2.35629086248436    1.58768618822922
H          -0.40439815093841    1.71378330471919    0.77427324761133
H           0.89384899814933    2.06062543360409    1.80180192719562
H          -0.18789277625450    3.34146584063346    1.36886179326546
H          -0.68426945893927    2.05755057343892    2.39942959521025
