    26
        -50.46438283  Gyration_radius:  2.63096298695 Dipole_moment: 4.455
 S           0.04639038568560   -0.60249461874366    0.20978007987520
O           1.17387219731736   -1.05281365102256    1.17206499249830
O          -0.51705403000501   -1.77969346295063   -0.42222128305115
O          -0.96154899684548    0.10016340862171    1.00047200282834
O           0.64564095381822    0.30264552925289   -0.78607909843131
O           1.89934118426884    2.53092538839935    2.53052761828031
H           2.43140901092567    2.77725798412980    3.28861881319774
O          -0.51590516934677   -2.33449503094192   -2.97907563035811
H          -0.38944434848257   -2.23813782676962   -2.00391292281944
H          -0.98668091729633   -3.15978346523140   -3.10421200313900
O          -2.94306401452284   -0.19578495286462   -0.67271775160073
H          -2.30412803786551    0.02537811925499    0.04767315513584
H          -3.05301846070691   -1.14755728779485   -0.59961193444180
O           2.81540823424970    0.82028360714539    0.69945926225413
H           1.92484775269922   -0.37611406765593    1.05646499631305
H           2.27065271633000    0.97214058870673   -0.08756694099415
H           2.57315311396117    1.53146946584492    1.33848438504091
O           0.19601450058538    0.63080727051167    3.32661009723503
H           0.69982326971090   -0.18495993439317    3.39126295148960
H           1.19684230893000    1.92821007961934    2.87017899428200
H          -0.35953415331561    0.51565987114902    2.52781539785934
N          -1.18247095313552    0.21036539434810   -2.59955860206275
H          -1.27764417001833    0.95647045309030   -3.27950128540887
H          -2.01991076490759    0.12679834535570   -1.95290711405921
H          -1.00885071266886   -0.72167963381094   -3.03803252564485
H          -0.35414088937597    0.36493841674751   -1.93401565427845
