    26
        -50.46438286  Gyration_radius:  2.63069615015 Dipole_moment: 4.455
 S          -0.57998764089892   -0.17943663428682   -0.20272125085279
O          -1.03514759380945    0.01817422538388   -1.67029556986928
O          -1.75676356755941   -0.37633322709256    0.62149789089457
O           0.29174514112184   -1.35116275348486   -0.15909837120022
O           0.15819934410176    1.02945666014865    0.20166326695870
O           2.58524030512927    0.21310929361042   -3.11105373552489
H           2.85892096956564    0.17786152982227   -4.02883893631762
O          -2.56465247668322    1.15611593944496    2.58235276611664
H          -2.38232364588170    0.65300708159378    1.75176345951666
H          -3.35180056827222    0.76292641130830    2.96213083511347
O           0.01341396541424   -1.85904555515604    2.38643808029978
H           0.24687250889397   -1.79223208696228    1.42882741979970
H          -0.91242019571620   -2.11640808546786    2.38080784096733
O           0.94358842838959   -1.85230986100599   -2.68035114307818
H           2.08835428070685   -0.62087879520871   -2.93886721459802
H           0.80078147511421   -1.79224124464588   -1.71288231600423
H           0.09477544371482   -1.61907548952169   -3.06581061790887
O           0.61764252873319    1.82975557894929   -2.31433882923294
H           0.73896059480451    1.92708914926254   -1.35770871940602
H           1.41000951660637    1.34089815259835   -2.63972014746912
H          -0.44729431091107    0.75849938525418   -2.04612070392205
N           0.05656239707013    0.75530897044560    2.76165103984365
H           0.19869151742668    0.99295207605437    1.72420335954610
H           0.11796500649163   -0.30378652924812    2.79361341499268
H           0.73585464274580    1.21146615322306    3.36043515492484
H          -0.92718805630621    1.03628964496694    2.97242303645621
