    26
        -50.46438282  Gyration_radius:  2.63095466802 Dipole_moment: 4.455
 S           0.44798292799486   -0.30741842252351    0.33718708279637
O           1.06711184358193    0.27539898813979   -0.85095892391238
O           0.62435152303401   -1.84445877285329    0.25778585033248
O           1.09305102616393    0.16796612645551    1.54579472057968
O          -0.99777949578353   -0.02531397715850    0.35795013079671
O          -1.10247015589631   -2.19540833693853   -3.22247980905247
H          -1.11210932529551   -2.95928272319393   -3.80115477752445
O          -0.05956571037448    1.36595484718763    3.56607643157165
H           0.61847167621066    1.59059163186710    4.20498160216675
H           0.37537175932576    0.77620970194521    2.90328196344343
O           1.40222489345670    2.67831543146760    0.11316839135802
H           1.32481877174348    1.84213344954779   -0.40720162064711
H           2.06297033038422    2.47435045439521    0.78038598696360
O          -1.67973150791854   -2.42248668708225   -0.62759128000726
H          -0.26612071655759   -2.20984855514115   -0.07209604795252
H          -1.91219996731531   -1.52730512638342   -0.33797795913826
H          -1.58929149804675   -2.37532793823675   -1.60863201081687
O           1.43935709122280   -1.74521355729178   -2.52760887344873
H          -0.15359965506907   -1.96765748128387   -3.08173910022165
H           1.36244561415758   -0.90604085857862   -2.02776345750794
H           1.66710959834275   -2.40226468351518   -1.86438044316005
N          -0.95040755016185    2.38121016569239    1.27701732394911
H          -1.72568763140683    3.01423271257586    1.11501549565862
H          -0.75689382856198    2.22442054126637    2.29144098338702
H          -1.12782504106596    1.40271940183002    0.87181081779026
H          -0.05158500215406    2.69452367782102    0.80768748259318
