    26
        -50.46278502  Gyration_radius:  2.5484197075 Dipole_moment: 6.690
 S           0.00445465591042    0.37231510544982   -1.18030227235015
O           0.94831938973910   -0.17280503394119   -0.20062394863983
O           0.83382558811386    0.86169213814627   -2.39639469482056
O          -0.94554441503004   -0.62379843863291   -1.63183914874406
O          -0.64044517643282    1.56776152842972   -0.62621787420304
O          -2.70262938815732   -0.06076188558821    0.25019935299919
H          -2.61233524254731    0.88233308458812    0.08638589766026
H          -2.16414302377263   -0.46227618340770   -0.46159791129279
O          -1.68803483359810   -0.74453974271891    2.61445388046458
H          -1.90701258015708   -1.66911246088854    2.73855862648491
H          -2.10357980085394   -0.48478596232549    1.75715230660509
O           2.25976984175413   -2.18361637743160   -1.32582778744603
H           1.76400894060682   -1.49502979725985   -0.83267543948910
H           3.18782193170128   -1.96175235899762   -1.23401252047290
O           0.81877104241555   -1.46188602327609   -3.48065842991059
H           1.42554604524282   -1.92349049636904   -2.86565635308854
H          -0.05547179148768   -1.53411310599857   -3.06803906869670
H           0.92564138543622    0.04116368046393   -2.96544189060304
O           0.84201738633706    0.01689917058178    2.41951803631696
H          -0.04845437387886   -0.36036483252473    2.61830920986263
H           1.01278922066267   -0.22770898516880    1.48288616993111
H           0.51153394605345    1.39949266192850    2.12354063605339
N           0.17006582641584    2.36256460126419    1.67829890421180
H          -0.15566259958148    2.08051733168055    0.68169600648489
H           0.92822606074189    3.03343729882365    1.61664586454005
H          -0.60947800562870    2.74786510316582    2.20164247814833
