    26
        -50.46385732  Gyration_radius:  2.40980985976 Dipole_moment: 6.525
 S           1.10612660040526    0.63844744281786   -1.00393334959479
O           1.00288380023361   -0.64329517818162   -0.29693994331256
O          -0.32452128581817    1.25959342956439   -0.99146545958192
O           2.03526646424861    1.53306171586203   -0.36852612584011
O           1.34977655765741    0.40925605803516   -2.43480295029218
O          -1.64820326776783   -0.92284398766381    1.81022789049829
H          -1.69797812922151   -1.33881885937442    0.94206660026695
O           1.57350539188002    1.63080510109592    2.20900067382774
H           1.83312994591837    1.57294090301723    1.25752849122190
H           2.02101870542972    2.40390067310108    2.55667482013599
O          -1.05210678144301   -2.01921274206898   -0.87913514118533
H          -0.23800068331641   -1.50278190226907   -0.59367436155804
H          -0.80242784734400   -2.94394679180451   -0.83069905321027
O          -1.01895757954000    1.61195108383434    1.38818595282459
H          -1.38626627992784    0.72019607607989    1.61979574777339
H          -0.16586462516000    1.68095257369816    1.85943032320670
H          -0.62375503115038    1.46100632688074   -0.01557647669808
O           0.97830230269446   -1.12857360079573    2.35589835274361
H           1.26204489552049   -0.27194146004606    2.69845746320845
H          -0.75225773292999   -1.13217205819995    2.15801563173699
H           1.15367765189444   -1.07115856808635    1.40009109173573
N          -0.95239433451839   -0.40674059649021   -3.00261727919932
H          -1.12445442962116   -1.15541604353166   -2.28413188442919
H          -1.51692151155247    0.40562812314153   -2.76021469156929
H           0.12181064136734   -0.06678393563559   -2.84421695214678
H          -1.13343342789478   -0.72405379307593   -3.94943936055478
