    26
        -50.45940116  Gyration_radius:  2.54046633066 Dipole_moment: 6.852
 S           0.76538892056384    0.74399984078608   -0.04636354297301
O           2.07426929019737    1.24592904311619   -0.48437670903671
O           1.07646608739551   -0.69992810967345    0.44849857231285
O           0.18058876485720    1.51132452033958    1.02589512790632
O          -0.13979511752293    0.60041435633652   -1.19040110652202
O          -3.10802787697647   -0.52492367161576    0.75261565730288
H          -3.47231311139675   -0.97693425052874   -0.00943437878045
O           0.79993029621755   -0.82826858502583   -3.13206242746869
H           0.33638789385915   -0.32901480316850   -2.40627226826987
H           0.72203783637562   -0.27606519882511   -3.91221692896609
O          -0.49834682841075    0.58763479497273    3.43689838731877
H          -1.31345330212039    1.04867383086601    3.64471123920649
H          -0.14564080840251    1.01138555045842    2.62804044820080
O          -2.26842353595115    1.82451016982998   -0.18338210798806
H          -1.75266954875129    2.22539680066162    0.52461016320513
H          -1.58322920684693    1.40848821143172   -0.74145136738931
H          -2.88835687252588    0.38779188418828    0.44664369388024
O          -0.86071765194021   -1.51620440956345    1.81378784190091
H          -0.74132122883846   -0.93102157516086    2.59245404017490
H          -1.71293598320294   -1.22885693356949    1.41097225550335
H           0.27001790038078   -1.06736948156316    0.99061825349602
N           2.89469961160943   -0.87246174513133   -1.54073589749564
H           2.68053276436976   -1.54417240073323   -0.80464248532677
H           3.85416700570478   -0.94883167603611   -1.86101824029319
H           2.18464750908305   -0.97891095380974   -2.31790811339858
H           2.64609721227610    0.12741481142848   -1.08548011645771
