    26
        -50.46385734  Gyration_radius:  2.40983910097 Dipole_moment: 6.526
 S          -0.33306386732422    1.06138794105149   -1.18360192817328
O          -1.26230261597318    0.97364179083671   -2.31851216725810
O          -1.01645360099790    0.68642787155725    0.05969980483868
O           0.68671855020512   -0.08043546866847   -1.48220499048991
O           0.35700213800264    2.31700424807322   -1.06379862604142
O           0.66348814867073   -1.51873185103749    2.02481479644636
H          -0.05552171989349   -1.84327351284631    1.47072822331877
O           1.78232483519968    2.35583461680436    1.13473363036676
H           2.41168239830205    3.07518560315155    1.06277859081812
H           1.20702831577124    2.41828572475543    0.33400160620906
O          -1.67343109157271   -1.76289902464421    0.21684283162711
H          -2.49261976641408   -1.80974193761107    0.71336301661189
H          -1.41139069889986   -0.79217450814936    0.21630593184856
O          -0.18670777607246    0.96567702790188    2.61038621854780
H          -0.64051300819397    0.98426379267961    1.74933485963043
H           0.33410597682852   -0.68667870984678    2.43326515279910
H           0.56766566410753    1.55589174479659    2.49081082196549
O           2.31162743438894   -0.21392194995966    0.41838835158948
H           1.82176028138188   -0.79526040430996    1.05548129491125
H           1.40450543748887   -0.13112182337669   -0.73095982661554
H           2.28103433613341    0.68550814488087    0.79862387806171
N          -1.37012158470268   -1.52949692967521   -2.42382119996913
H          -1.58873569054158   -1.80109999666932   -1.43149468549367
H          -1.40171829711028   -0.39230534394517   -2.44753285606850
H          -0.39708919794920   -1.76332378565993   -2.61309045213174
H          -1.99927457079260   -1.95864327998260   -3.09454225721704
