    26
        -50.45940106  Gyration_radius:  2.54010750323 Dipole_moment: 6.858
 S          -0.01570732484366    0.94396135703632    0.50023260859090
O           1.26051629134321    1.33403017191496   -0.04715959102920
O          -1.01575503100206    0.68568095102882   -0.53999689806097
O           0.13784332389846   -0.38516659503370    1.29805815783163
O          -0.54109265291934    1.88460347692876    1.49826688312697
O           1.09216983866842   -1.56525486705925   -2.61608870709160
H           0.31809317379963   -1.99586774087330   -2.98087352142085
O           3.52151968891742   -0.08143829967809    0.05859060571756
H           2.76645651720969    0.53953042358640    0.10839853379414
H           3.93415020299052    0.06946847597609   -0.79412472086461
O          -3.31554386882277   -0.09670515514368    0.35069986167558
H          -3.95395305191850    0.50522073517210   -0.03621294246388
H          -2.44560428217083    0.12802748962869   -0.07768759124113
O           0.51782078520009    1.03623417452198   -2.67752224865548
H           0.94118982201490   -0.59596817200461   -2.72849054674728
H          -0.20661752879539    0.93606444294839   -2.03014322288619
H           1.20446256845052    1.47468781605004   -2.16341126685589
O           1.59482452189193   -1.94518277943729   -0.01573487680739
H           0.71386537195388   -1.05702930705280    0.75374616672611
H           1.38714027787138   -1.88409571147829   -0.97714786297907
H           2.44513885346291   -1.46634599197082    0.08804565693543
N          -2.09844763237121    0.29571363391374    2.65010187782998
H          -2.56889597068974    0.56763710220488    3.50668452482111
H          -1.48209257267031   -0.50437712547392    2.78738386404532
H          -2.76504001387605    0.08162164058742    1.85678922063904
H          -1.42644133751114    1.09494984368215    2.22759603533546
