    26
        -50.46385736  Gyration_radius:  2.40980282066 Dipole_moment: 6.527
 S           0.54171626439612    0.32107348997795   -1.49729944334962
O           0.18505312333351   -0.27007729886791   -2.79449715297131
O           1.16775601902224   -0.88295694202299   -0.72854100629288
O           1.48519862526448    1.40382381493551   -1.56611105365755
O          -0.67153456413860    0.69244956790039   -0.76007192900294
O          -0.75150322572105   -0.30312040257849    2.48807152314914
H          -1.24264964547444   -0.81228593927074    1.83323291007030
O           1.81358668084221    2.46438944432011    0.80735869814486
H           2.61298248897652    2.99283055233416    0.78289308017525
H           1.67008990885073    2.14763952634517   -0.11736484319204
O          -2.08399425589048   -1.26915073404748    0.02242966797033
H          -1.54806686512422   -0.46003180947372   -0.24035170652247
H          -3.00197569932426   -0.99302234039758   -0.00880079947936
O          -0.91869739818203    2.18323610776805    1.47381975715636
H          -0.93289767023307    0.64215257705572    2.28565321145882
H          -0.03638876867969    2.57049912365801    1.53078224034190
H          -0.94736335171605    1.78912570999301    0.58416910203256
O           1.73289751305869   -0.13751426147656    1.59395461147651
H           0.86685086024191   -0.26979539993400    2.05904774445991
H           1.45630140680138   -0.59196203030136    0.22784255029450
H           1.83944886768527    0.82874913537143    1.49590165925645
N          -0.66744025786997   -2.45364819233370   -1.90385143597304
H          -0.31944844296857   -1.49247912275526   -2.40389088036753
H          -1.34779849546484   -2.15787856138962   -1.15823946678754
H          -1.06789607282117   -3.11920413751809   -2.55700793827613
H           0.16577294514199   -2.82284190734450   -1.44912909013889
