    26
        -50.45940116  Gyration_radius:  2.54056030429 Dipole_moment: 6.852
 S           0.26465467281801    0.43353038275177   -0.93986446630325
O           0.22321905466168    0.49845373598983   -2.40648758652577
O           1.31613027893129    1.22889743190541   -0.35479568454960
O          -1.05180722650701    0.74212314898921   -0.37379089147235
O           0.52229384580042   -1.07512249471102   -0.64965067786604
O          -0.04556868335968    0.50017721937133    3.20184315884576
H          -0.94091686675740    0.29189751815096    3.47140617177056
O           3.29780462289259    0.33065518223698    1.19198352502791
H           2.68192672949873    0.69490102852923    0.52395364944756
H           3.41204702449005    1.01813931619797    1.85111256690330
O          -2.98903312916110   -0.69312353316302   -1.31243646120203
H          -2.29568342066319   -0.15007563647796   -0.84838772393591
H          -3.64433515367140   -0.06342251208950   -1.61845977741855
O          -0.30310836917311    2.50433962513809    1.46439108940441
H          -0.77226245688983    1.94312056058301    0.81718212175719
H          -0.11331324455339    1.30895717459521    2.63955570171608
H           0.56312076372840    2.61936776737176    1.05898281351398
O           1.25562234728422   -1.32055275141305    1.73477557515400
H           2.14083929212738   -0.90472624451767    1.65388862422981
H           0.74430166751141   -0.71284851943295    2.31803179008461
H           0.79708092183841   -1.20007946830994    0.34435373229473
N          -1.02715967484810   -1.63862916890925   -2.78862371432533
H          -1.14363780169777   -2.00494513771504   -3.72736303249374
H          -1.94350180342389   -1.40433513803605   -2.31437323112079
H          -0.49984293565328   -2.27375709776600   -2.19075965206342
H          -0.44887045515816   -0.67294238923270   -2.74646761083276
