    26
        -50.45940114  Gyration_radius:  2.54066949413 Dipole_moment: 6.853
 S           0.81981078184684   -0.63755157569092   -0.24606030864817
O          -0.32192096005192   -1.21410021431108    0.47000877974510
O           1.48037660194454   -1.65819993645431   -1.06991632435472
O           0.22484799681690    0.34815776790790   -1.29535801045173
O           1.72031497444561    0.06961873432126    0.63114601995493
O          -1.26214029867846    1.87512711142981    2.32286182411111
H          -2.17098215055497    1.58444647455315    2.40849035638871
O           2.16650501435105    2.70149937168660    0.64843044333894
H           2.15016202929622    1.72400581543548    0.59837778931887
H           2.25800076061313    2.91851336846919    1.57830609219253
O          -2.03100519720429   -2.43642612299158   -1.03981085290844
H          -2.12489235730792   -3.31077342440727   -0.65726237228300
H          -1.46446720327476   -1.92648475444418   -0.39960227065284
O          -0.38937493954044    2.48214868254597   -0.13275392659984
H          -0.78267985893065    2.29326541199400    0.75080465103309
H           0.51717644671589    2.80480359323079    0.06006901291171
H          -0.06496169703378    1.22825730227359   -0.82542773583755
O           0.20237539068568   -0.27606676131901    2.89687101993455
H          -0.70588721039085    1.12109981457898    2.63419300685632
H          -0.11592257713566   -0.75918925104638    2.10995712136626
H           1.10858435356008   -0.05284164670676    2.65807580060993
N          -0.25561897149816   -1.79140010716792   -2.87139654080253
H          -1.07833363421825   -2.14803003026346   -2.30984937236131
H          -0.08194265262255   -2.32919416010903   -3.71377895156476
H          -0.39627100637736   -0.80147501450890   -3.06931872735480
H           0.59824637447776   -1.80921046899222   -2.13705653396268
