    26
        -50.45793257  Gyration_radius:  2.46047161438 Dipole_moment: 5.068
 S           0.28650092330560   -0.33167965023504   -0.91619781485278
O           1.02427884056543   -1.08144224874574    0.08072280584741
O           1.09882049131720    0.35211085239022   -1.88847724479492
O          -0.62123178006675   -1.38832458760502   -1.64192856095009
O          -0.66901562017935    0.59878723594974   -0.26860598085609
O           0.11282478026519    0.54673099467725    3.30694296092850
H          -0.21601106433796    1.15054009502933    3.97575220421966
O           2.99804516973550    0.85930956852453    0.00565519837693
H           2.53143836921702    0.84895764707666   -0.84526720459130
H           2.85222057722238   -0.02519270336491    0.35958950723230
O          -0.77763923374053   -2.70736525538989    0.97900193444301
H           0.05270021836777   -2.25355372638835    0.69066092007060
H          -1.20821465103265   -2.97216660687135    0.16146583877506
O           0.98647704225564    2.01396825654336    1.36442075030699
H           0.56614888070244    1.11811822275859    2.61250744534795
H           1.85934458130037    1.75471784368640    0.99825866507607
H           0.34537937818877    1.72072264249357    0.69572671703598
O          -1.61416880821808   -0.44829910605975    1.77097827876801
H          -1.29863332739388    0.04166438672740    0.88730831349968
H          -1.37372194145634   -1.43319617923232    1.58400586726339
H          -0.93503985960080   -0.09519676830962    2.48990126856904
N          -1.28427550065086    0.40853329250822   -3.39403838643352
H          -0.34917660668274    0.75176594652889   -3.18541051560112
H          -1.01676168476313   -0.86549494876761   -2.40146224030528
H          -1.94990260783746    1.07423930034185   -3.02329808095096
H          -1.40038657646963    0.36174547564309   -4.39821263644982
