    26
        -50.45793247  Gyration_radius:  2.46046600853 Dipole_moment: 5.072
 S           0.34685945043154   -0.10125228433596   -0.95009784002863
O          -0.42757447645761   -1.05710043059172   -1.92675156918865
O           1.12620447502622   -0.97571619063688   -0.09662522951868
O           1.11504036898009    0.84662700687824   -1.71448866874712
O          -0.71669840962940    0.57720028609266   -0.17108710452584
O          -0.04302381778243   -0.16299669936695    3.34919751085753
H          -0.45145347975368    0.25049283249411    4.11224852928078
O           2.89364045713374    1.10948118757813    0.34005684022235
H           2.82418194762157    0.16021335826992    0.49182551651147
H           2.45832783114711    1.23992929325155   -0.51741889949297
O          -0.52995612060623   -2.91413927940589    0.34855036501342
H          -0.90667186308741   -3.03684653582120   -0.52719880943352
H           0.25885285632270   -2.33504162967686    0.20418557427654
O           0.73550917306210    1.75972702553041    1.80443370105961
H           0.37046818907267    0.58325592409935    2.81407533655433
H           1.64098201876053    1.66544026164479    1.43776333762325
H           0.14830848734469    1.55753083053166    1.05711253916129
O          -1.61321196546319   -0.96301707416580    1.55309326852343
H          -1.26931260563256   -1.85883890930509    1.17658994681807
H          -0.99520638288175   -0.71012549948184    2.36366476093477
H          -1.32182235880619   -0.26892324595147    0.80868845320965
N          -1.21517483458892    1.00391471161931   -3.29370979491005
H          -1.29680416084191    1.16351628837640   -4.28956003316682
H          -0.32608179997868    1.37948331010797   -2.97091723385083
H          -1.95514093376389    1.50967723547450   -2.82453910310198
H          -0.85024204562716   -0.42249178320368   -2.57909141407923
