    26
        -50.45685522  Gyration_radius:  2.45817083678 Dipole_moment: 3.964
 S          -0.38485066820799    0.74163360372864   -0.59634521433200
O           1.03957659821101    0.96224402280015   -0.47999317460327
O          -1.10374104031206    1.95328149608009    0.06558601391956
O          -0.82841061301033    0.60487739347604   -1.97135083060186
O          -0.79612939410896   -0.44825528802992    0.18777164374937
O           2.33672269294542   -2.03428563909041    1.25006582705867
H           2.44393769612265   -2.80608535059290    1.80958589213317
O           1.35636004896813   -0.77762978577802   -2.54749629131315
H           0.50030824356483   -0.29983105058604   -2.61057919705439
H           1.92888542018796   -0.14804595914129   -2.08940571059445
O           1.23064723792682    2.11479090912018    1.92186007397216
H           0.43133520853012    2.64600084731250    1.90494672566763
H           1.33733748365219    1.79136999874922    1.00688988189188
O           0.68518806027120   -2.28129117726794   -0.62165446924577
H           1.44289135495026   -2.24269342749562    0.11372379226721
H          -0.02914051689238   -1.60308091638528   -0.26665965970107
H           1.04039166486291   -1.80614931655346   -1.47238018203611
O           0.68032057107610   -0.47040582828831    2.45772952902170
H           1.79076847828979   -1.37240589429543    1.78501040144864
H           0.99626435890160    0.45605409597069    2.49360710699584
H           0.00232250074416   -0.46899421643112    1.75735812803609
N          -3.37170310579702    1.08896238888394   -0.83231630180729
H          -2.79025949500480    0.75290091915648   -1.59652573282684
H          -2.07347589735252    1.79450440749106   -0.15474607220400
H          -4.17905097335958    1.56495800249243   -1.21339237787755
H          -3.68649592514026    0.28757577467448   -0.30128978196100
