    26
        -50.46954177  Gyration_radius:  2.3986937361 Dipole_moment: 4.978
 S           1.40050891742111   -0.67619525841328    0.33718822736145
O           1.28159224561973    0.29315833528550   -0.77246652538749
O           0.25000876358375   -0.55119318030545    1.23495093593734
O           1.31387370874057   -2.08201017979653   -0.33436640289701
O           2.65429252535986   -0.53948558785052    1.02565008000237
O          -2.31532638056137   -0.61457647213733   -1.48155149670905
H          -3.04821166385308   -0.71949916332058   -2.08962500946200
O           1.80495120505751    1.48424766900284    2.48850467694661
H           2.28337341341939    0.77481279033981    1.99970125176522
H           1.18073949824045    1.00865232580386    3.04331268270751
O          -1.77021557359079    1.07794755723194    0.68421033532072
H          -1.12612689901200    0.42279332637060    1.02731683567316
H          -2.12664381809758    0.65965402763166   -0.11502698255611
O          -0.00930061621129   -0.86139926224651   -2.73710852285684
H           0.34521263760449   -1.75369887514348   -2.74231574554283
H          -1.48817643409195   -0.65228262208097   -2.02647588932076
H           0.54396553899876   -0.36967032923791   -2.08857235660106
O          -1.19297963910465   -2.50796183037479    0.18424092401019
H           0.37438214933944   -2.39214105697647   -0.20779606974030
H          -0.96056006252265   -1.92428714918846    0.92390983126769
H          -1.73680619721455   -1.95702454516369   -0.40873357876788
N           0.46341275393315    2.42729596004186    0.40552090304217
H          -0.55170883647759    2.14822508976312    0.51448597662291
H           0.59208717303016    3.36761585600426    0.05007673204851
H           0.96972271135580    2.26038918543341    1.31897297919555
H           0.86793287909646    1.67663340926349   -0.23400383197503
