    26
        -50.45437396  Gyration_radius:  2.57020320123 Dipole_moment: 1.874
 S          -0.93067718559599    0.12956660509848   -0.77183742892529
O          -2.28592311063146   -0.23781417905788   -1.36863946083004
O           0.10716166176567   -0.67809286873338   -1.40409950631345
O          -0.70494250447924    1.55086533079392   -0.94913358218108
O          -0.99028864769789   -0.19519000447591    0.68332543399383
O           1.52224417303622    2.73672021267343    1.96994942689544
H           2.39014789637305    3.00206569134780    2.28000065143153
O           2.37499410452491    0.08599983859105   -0.42756320602037
H           2.37883735224897    1.02300269201965   -0.68308870152299
H           1.60104433106245   -0.30663937191830   -0.91300203253500
O          -1.90381880790975   -2.62837158339812    1.37056786262284
H          -1.54274681454778   -1.74176617501564    1.16950720646078
H          -2.62938543372056   -2.48177541471589    1.97929940091446
O           1.56058384204994    2.70950631855037   -0.70060620922287
H           0.66513534887926    2.27667613752552   -0.81963326349378
H           1.55531129026195    3.46538302043069   -1.28976020150563
H           1.50819347057328    2.88033334689878    0.99630217003261
O           1.18269256554373    0.18515496638442    1.77126702834929
H           0.19642620175104    0.00367132467633    1.36723812008254
H           1.79730149982489    0.06340185258469    0.91879079311226
H           1.23342061606477    1.17229661793113    1.99143080343441
N          -1.83819154578013   -2.71423663381098   -1.46111751498363
H          -0.85278482089667   -2.58590470376894   -1.66377776771614
H          -2.22416860137708   -1.29035243864650   -1.45911585772773
H          -2.23955391772213   -3.39527458028458   -2.09049094449185
H          -1.93101297357860   -3.02922601164797   -0.49581321981540
