    26
        -50.46954176  Gyration_radius:  2.39866386209 Dipole_moment: 4.985
 S          -0.93195768882260    0.70157010283896   -1.08308051706927
O          -2.28225342410376    0.92734682738754   -0.33444455367794
O           0.06816113262542    1.48462501022014   -0.32713948546750
O          -0.61872241177631   -0.72648003429884   -0.99446890784460
O          -1.04369690104311    1.15852288454354   -2.44069991132132
O          -0.13733844988346   -0.73867854865528    2.71365940754352
H          -0.08795752029601   -0.86771243751550    3.66169857854856
O           1.06665477793016   -0.20898459675456   -3.23640175842846
H           0.29310564187779    0.38501670575559   -3.09551663109680
H           0.70139497296900   -1.09453393089096   -3.15846146333476
O           1.36807734544407   -1.61787362256107    0.52053281576543
H           1.04257027406230   -1.38089778948651    1.40302274105763
H           0.59720339598788   -1.46333731193289   -0.06582235421571
O          -0.78191119609781    1.75245759871236    2.13534250362741
H          -0.41665863630508    1.76923369762997    1.22159976935216
H          -1.72403711782986    1.90525932921761    2.03094565603880
H          -0.31644183294608    0.22538652565544    2.56857375402717
O          -2.24639831614630   -1.28702937700030    1.01876894145677
H          -1.58965728968391   -1.21096704820751    1.73554335796006
H          -2.41485097539673    0.12611054534033    0.24439249963895
H          -1.73454516311815   -1.55323773899380    0.23837603122833
N           2.28932654974279    0.34918665001790   -0.95150098843909
H           1.49185152467037    0.98624463072655   -0.64444158634204
H           3.19756066575185    0.79683807489312   -0.90901884994904
H           2.19933554580546   -0.49340315229337   -0.31701016899053
H           2.01118505658903    0.07533700565036   -1.93444888006369
