    26
        -50.45437401  Gyration_radius:  2.57027872673 Dipole_moment: 1.874
 S          -0.41416309092180    0.57415494647340   -0.98727812647560
O          -1.10202955605292   -0.48302695848871   -0.19022901828102
O          -1.13207712878167    0.66078360888003   -2.33079199001940
O          -0.52438482354602    1.85094404662974   -0.30873227805855
O           0.97445029437405    0.18435954829043   -1.20882439102550
O          -0.47363010920054    1.15018200298890    3.48367368736656
H           0.01312447973918    1.15948798939097    4.30997069219587
O           2.14559807389556    0.18068796977480    1.09524989823212
H           2.02197149961572    1.10509593623150    1.36631100850978
H           1.85765933281579    0.15389577893573    0.14379796940786
O          -1.54282760908030   -2.84731686280035   -1.39095675013483
H          -1.38369160179663   -2.01430020061523   -0.90344600847568
H          -2.48489918851053   -3.01099969321100   -1.32643759692365
O           0.89999119577900    2.57196267372404    1.68799070464732
H           0.98450550559134    3.52552254669509    1.64275293048605
H          -0.03747046718178    1.79885160385545    2.88541770470806
H           0.34034768538974    2.31944354314742    0.89645463754564
O           0.04021267321838   -0.86531992296381    1.95466865720692
H          -0.52057030003637   -0.74814930629262    1.03818823114940
H           1.00464303668117   -0.53735050022167    1.66828277986518
H          -0.29629108658321   -0.15881962683953    2.59757097201775
N          -0.04775183837845   -1.39165871441120   -3.30749453834143
H           0.12094142626737   -1.60262656679992   -4.28121392255976
H          -0.52170552867439   -2.17307042865271   -2.85522514724764
H           0.82951338132203   -1.22596099894641   -2.82631880796153
H          -0.75146625602189   -0.17677241466360   -2.85338132782671
