    26
        -50.46954182  Gyration_radius:  2.3986499102 Dipole_moment: 4.982
 S          -0.53715129767165    1.18787168862041    0.91142410518794
O          -1.35696466588522    0.66126734424627   -0.20002308843151
O          -0.68500064706430    2.61056145153111    1.04818265625806
O          -1.07203378812986    0.47301292732650    2.19131115930109
O           0.85947535180610    0.78217546774296    0.73797381142185
O           0.08807234954122   -2.81352035416076    0.07045182005980
H          -0.83194416078824   -2.45575502436032    0.16025160998985
H           0.00405691767572   -3.76373094725332   -0.01813438174923
O          -2.26348728591179   -1.69642140654006    0.49244469144896
H          -2.03450567778997   -0.79384205160269    0.17403180237930
H          -2.48930932123147   -1.58485419209829    1.41897648723130
O           1.59726126423795   -0.84113099688236   -1.22637170719442
H           1.49621724110612   -0.25653334708259   -0.44541301099993
H           1.13323211439666   -1.65398125469601   -0.97179455465453
O           0.77263760651238   -1.34876159653393    2.30870302653795
H           0.60870351013267   -2.01108316384295    1.61211947886805
H           1.26130517086338   -0.63668177488947    1.86588124892236
H          -0.43990479523085   -0.27643038169762    2.37420373282201
O           1.04855420589734    3.13052844911587   -0.87012275060814
H           0.35745194019700    3.10748408208257   -0.16791160669465
H           1.84895961006733    2.84233787604226   -0.42296670735957
H           0.58319506775743    1.95555046021708   -1.90429966497831
N           0.12640611503962    1.07049323318541   -2.26032220495644
H          -0.21689144917689    1.15893932207203   -3.20977872760247
H          -0.64701702869446    0.89572690900625   -1.54807326382260
H           0.78868164219707    0.25677727048445   -2.12074394137481
