    26
        -50.45437401  Gyration_radius:  2.57033328552 Dipole_moment: 1.870
 S          -1.09780807474744    0.21766860200592   -0.47326727877182
O          -2.09133535072562    0.95432190855808   -1.36654003001847
O          -0.44388414047746   -0.83278762567856   -1.24666426406850
O          -0.07831446760776    1.21552385905379   -0.03595717361618
O          -1.79900878772703   -0.30685000531882    0.68252799401304
O           0.71529190712884   -0.42064111239963    3.60522016522752
H           1.29206850396460   -0.94142959118333    4.16726124091429
O           1.03863315195292    2.75604326230708   -1.93478090473650
H           0.67918552068579    2.20339613747813   -1.21212457464764
H           0.89483872727826    3.66410637815710   -1.66428388636539
O           1.12549192262672   -2.10582898149002    0.36509693236078
H           0.56458515054382   -1.74293815779040   -0.37142346799971
H           0.49044939477348   -2.42502132497147    1.02694570084129
O           1.69965416616461    0.14931985717852    1.28780036700842
H           0.95215330071455    0.69011281449085    0.72427384817736
H           1.35747697061380    0.07884872262237    2.23839611807819
H           1.61166685541381   -0.82800827443552    0.89254120470404
O          -0.87857059111482   -2.09218062792380    2.26419635934886
H           0.03847387878644   -1.03467830412947    3.23949936257287
H          -1.63015516790790   -2.57860446692781    2.60625049630511
H          -1.26816589774727   -1.40350409279057    1.64990271728338
N          -0.60669078300038    0.97508377588102   -3.40046054565638
H          -0.88323468724839    1.01219183201099   -4.37164408585195
H          -1.56910541435239    1.03039798027897   -2.28382481126294
H          -0.20217503141240    0.07055011865487   -3.18418442351137
H           0.08847893342395    1.69490730638059   -3.20475707034546
