    26
        -50.46278512  Gyration_radius:  2.54844568459 Dipole_moment: 6.698
 S          -0.43402995917627   -0.10330510530194    1.15586102805131
O          -1.67211149750562   -0.23454500517981    2.08134753734447
O           0.00046989373094    1.29375818244217    1.26119443734414
O           0.57796268668421   -1.04392122544621    1.59146987412598
O          -0.88300365533810   -0.37414508824359   -0.21260516195322
O          -1.88240465945413   -2.82811391851701   -0.30272905499083
H          -2.77219797909576   -2.72484100653380   -0.64412061600792
H          -1.46653063386086   -1.94047642211879   -0.35063754099118
O           2.48844849614434    0.55054601456129   -1.93503832685654
H           2.96962846978365   -0.21622185595069   -2.24938687979518
H           2.56179162212156    0.52636487359746   -0.95057891478905
O           2.57912973521251    0.43538990914714    0.72327388830976
H           1.98692736953503   -0.27716004694711    1.03859464308865
H           2.20428693962363    1.22447602307299    1.12516716289685
O          -0.10206891570965    0.79934972249476   -2.43165922292471
H          -0.45741460324115    0.19851375651738   -1.73955893782896
H          -0.24388158240476    2.00181399053966   -1.63015262554016
H           0.87508257033161    0.66046513366260   -2.40589517494523
O          -1.34967692264826   -2.76589166846766    2.33435105730682
H          -1.61381556328529   -3.04649185842979    1.43378467367327
H          -0.40799876418248   -2.54748581338795    2.26059874526579
H          -1.70080829582934   -1.21258640754784    2.30050127686111
N          -0.30631783625393    2.76633642493436   -0.82150751992463
H           0.46020091402104    3.42815564521524   -0.88862915308638
H          -0.21278255247134    2.18215492293298    0.08885171658163
H          -1.19888526674701    3.24786082294338   -0.83249692124221
