    26
        -50.45437408  Gyration_radius:  2.57032230589 Dipole_moment: 1.868
 S           0.07345470586312    0.93024486010895   -0.77827638955025
O          -1.04363267464105    0.07385235344359   -1.16284808368370
O           0.60034185557447    1.65356410133074   -2.01397388957776
O          -0.30545365239092    1.91201401846048    0.21935751208470
O           1.18709254772346    0.08444389229735   -0.25776851253042
O           0.19272044112061    0.28747304771008    3.68231315004617
H          -0.19765680866379   -0.12166469103618    4.45691247941130
O           2.48109331951495   -1.48032681891480   -2.01967799331650
H           3.40896039024835   -1.24975680424820   -1.95455099409719
H           2.02625891731569   -0.94754597609528   -1.33697021493820
O          -1.95283348934898   -1.01563128518325    0.99781433183508
H          -2.20175289096967   -0.22917874800196    1.51037607993465
H          -1.74406279562926   -0.67124486026901    0.08868393163691
O          -1.76121690065683    1.43006516197503    2.26492827917348
H          -1.20228740012860    1.64794969463133    1.46270843001778
H          -0.51066010257421    0.82952679500935    3.25764767673966
H          -2.23202743115327    2.23899221750310    2.47095370121294
O           0.44958729250649   -1.28265518161146    1.64934342270433
H          -0.58101193331660   -1.32042042647267    1.41418489092786
H           0.84963751501101   -0.70831615944983    0.82507462107859
H           0.50878887521532   -0.69569191669950    2.47253239966072
N           0.39336222542124   -0.33012815501707   -3.55121424766539
H           0.56375344800048    0.90164641404770   -2.75785000907520
H           1.17632998729604   -0.93330028744354   -3.30044049246275
H          -0.43953306464065   -0.67467434990316   -3.08631024344858
H           0.26074763329462   -0.32923687617511   -4.55294981611054
