    26
        -50.47166720  Gyration_radius:  2.38843365595 Dipole_moment: 3.169
 S          -1.29626286211897   -0.20255764354579   -0.54563826881093
O          -2.22029571300113   -0.52657026675521   -1.74923262784475
O          -2.14079489742048    0.10913222393264    0.59704881274297
O          -0.46692022321306   -1.37658625289773   -0.29515291111770
O          -0.47605105888339    0.95515085480260   -0.91283889413007
O          -0.39310288788546   -1.41190391927903    2.36065352765446
H          -0.36024462059575   -1.54183878667615    1.39192127572735
H          -1.31284417763985   -1.20528701005541    2.54285598200361
O           2.03038156975134    0.53328233297506   -0.05633073921773
H           1.14969588224424    0.73192292958472   -0.42722764904944
H           2.32283391643979   -0.25365522595055   -0.53029540485989
O           1.63745226463121   -1.75377485958918   -1.79620279240358
H           1.84035403200792   -2.68783253814801   -1.86372901549147
H           0.86520128764002   -1.68281466022830   -1.18747358602283
O          -0.13837873809489   -0.27474437903003   -3.30599354395490
H           0.57518986007774   -0.87742152652646   -3.02775523440974
H          -1.59146558356884   -0.55007554557507   -2.51346308028535
H          -0.02210468209765    0.51274650964017   -2.75635581846344
O           1.18874956660877    0.72439255376053    2.46728730214359
H           1.70878212797130    0.62061546851518    1.63763577491369
H           0.10982100408815    1.58973809886158    2.00828519304839
H           0.72236334070877   -0.13598541786213    2.58884387246619
N          -0.73854527779156    2.09942173976438    1.49642974857196
H          -1.13013499677337    2.86802621999352    2.03028441664051
H          -1.45239804296136    1.34285093358872    1.27356273454966
H          -0.41128107013909    2.39376819669942    0.57288092560227
