    26
        -50.45444087  Gyration_radius:  2.5533538145 Dipole_moment: 4.668
 S          -0.16557380466727   -0.65281572404285   -1.25055855585141
O           0.04607372251013   -1.06474151533630   -2.71303076598137
O           1.15099979030936    0.03242414691620   -0.89890304128156
O          -1.25902278971215    0.27275101842306   -1.16716720937189
O          -0.32084388798135   -1.83273025227305   -0.42932839711232
O          -1.20118874036965    0.58471464980011    2.43523972136096
H          -1.36301638265932    0.40951477460674    3.36337574884424
O           1.24723152544345    3.18783737851848    0.67248587333633
H           0.26848630591282    3.11828556013026    0.55625314644725
H           1.61621786598310    3.24471651552379   -0.21028930449149
O          -1.31093295555208    2.52097743543194    0.39298368319545
H          -1.44762235211029    2.05390944103408    1.22917139803495
H          -1.35308073458819    1.83275478266438   -0.29163415439023
O           1.32066682319412    0.69031673859096    1.47585653838354
H           1.24183016579509    0.27112025992190    0.15492689599914
H           1.43682278213654    1.66681720996667    1.32395120128031
H           0.42890025584764    0.59825990066828    1.87875013281144
O          -2.51026788647218   -1.12003692502326    0.91967898318751
H          -2.83485878988096   -0.54898693036654    0.21559302235906
H          -1.74936734067617   -1.58176491994463    0.51877783041341
H          -1.72712243473238   -0.08613883450672    1.92435387550677
N           1.79743133043146   -2.80862107839366   -2.03194163140509
H           0.77512884229257   -1.77916171182994   -2.64929392402278
H           1.96086010803786   -3.72209293760872   -2.43421099424927
H           2.68706081683348   -2.38016206881205   -1.81331279465634
H           1.26518778466969   -2.90714690402337   -1.17172727833878
