    26
        -50.45379086  Gyration_radius:  2.52528756249 Dipole_moment: 3.720
 S           0.17773276943595    0.37540986587097   -1.34762063685401
O           0.41583295035262    0.30819409193923   -2.87356377747490
O           1.45403267656812    0.54889954002653   -0.69461424145784
O          -0.75946271462291    1.44827734636156   -1.05568598164591
O          -0.43235391096296   -0.93482970883314   -0.98412202053661
O           0.13322693804513    0.79278979024418    2.59852424334118
H          -0.35008425504456    1.17013254113826    3.33534950086398
O           2.32731751614281   -0.68578760529542    1.51582763203844
H           1.86580085553426   -0.13162924572284    2.15695489687417
H           2.14132024725341   -0.28003301328255    0.64528346041724
O           0.92815307309151   -2.89537508061941    1.55830238410615
H           1.02386823500905   -3.29929173475219    0.69329575162028
H           1.60157791138886   -2.16187198839507    1.59571759114249
O           0.57122829705196    2.66019733045208    0.85350688049743
H          -0.04381406821573    2.37030566553772    0.14388825227023
H           0.29490237126485    1.54636431968203    1.95411430943770
H           1.43936608334831    2.43773808256162    0.50014324948589
O          -0.97446122257663   -1.21863662752086    1.37110311718033
H          -0.78695624885179   -1.04834730448784    0.25017703731735
H          -0.31400930295125   -1.98570643908691    1.55334897319649
H          -0.59859100919355   -0.41934453164905    1.85658051653179
N          -2.15876671871646    0.26472186294200   -3.20209675228542
H          -2.51052524228920   -0.63883348902667   -2.91397181363109
H          -2.78764570539804    0.65534390921403   -3.89160821826571
H          -2.13951868380639    0.86964069798395   -2.38494083165011
H          -0.51817082186809    0.25167170470687   -3.23389352252136
