    26
        -50.45379072  Gyration_radius:  2.52457005485 Dipole_moment: 3.721
 S          -1.27864005725527    0.02242928924103   -0.59483791119612
O          -1.12379169851712   -1.28088012553252    0.00768583450290
O          -0.56507205344584    0.15334510516514   -1.85514918176805
O          -2.78528597720905    0.27262080341648   -0.83409181715478
O          -0.84189634528793    1.09656249138212    0.34090873344542
O           2.43211439355334   -1.21362437556433    0.07007274100241
H           3.32574690141634   -1.21207160015678   -0.27679330466157
O           0.83423223468910    0.32120648292705    3.29554536874447
H          -0.03992734315225    0.68387046116214    3.45337786939662
H           0.69186095894002   -0.61531586686049    2.98600161282260
O           0.49143395416850   -1.94549231075967    2.03719602317485
H          -0.20954519096324   -1.77022285229713    1.37750003611689
H           1.30531871004904   -2.02847669488143    1.52548718716483
O           1.51195051214680    1.05392207096484    0.95780827842749
H           1.89915664564951    0.20542040269106    0.57521284328934
H           0.42330214932360    1.11390082608680    0.60219911580982
H           1.36771558653776    0.86297157612729    1.95872783288127
O           0.82938682106597   -2.06740897560179   -1.78045175867746
H           1.84591545193924   -1.56199280078525   -0.66792272651769
H           0.16470765164984   -2.56384759227345   -1.29078085743745
H           0.36937160697426   -1.22691707946147   -1.99952789322770
N          -2.15270743199003    2.47949738986708   -2.04615178213002
H          -2.78347564924192    1.15872159191996   -1.30297043214495
H          -1.34672786269390    1.93213304153935   -2.33743962701687
H          -2.52374865172521    2.97816436834457   -2.84442250741298
H          -1.84139532662459    3.15148437333448   -1.35718367743173
