    26
        -50.45899783  Gyration_radius:  2.47154250733 Dipole_moment: 5.017
 S          -0.32724335430863   -0.99602960893506   -0.16364458786201
O          -1.05159556340094   -1.18405864850707   -1.54463428283917
O           0.06438513366327   -2.27800258960495    0.35438384408569
O           0.84700176632262   -0.14634249920797   -0.46224531990230
O          -1.28348987393066   -0.26656331901692    0.65553830874321
O           0.25453586834239    3.08787676983617    1.49685062323070
H          -0.50408538818204    3.62481170610620    1.73424757204686
O          -2.25817230516595    1.41983999511255   -1.05685240767584
H          -2.08119301258724    0.77518101939950   -0.32835050634376
H          -2.40612106270957    0.87465869220529   -1.83411584842335
O           1.79454322842611   -0.91042265278568    1.99729575004756
H           1.93693712424767   -0.46786172554510    1.15098700362873
H           1.24989420968739   -1.67525251187116    1.76537586868427
O           0.15738179613311    2.19499154220135   -0.85057758850351
H           0.53780946321451    1.21074226387680   -0.72606327206703
H          -0.84186968320654    2.03544599877455   -1.01823458680642
H           0.23639652354431    2.63141323229295    0.10452699712213
O          -0.08760151605372    0.87776533018524    2.77810876261375
H          -0.69369462460586    0.44017427170572    2.15335524157477
H           0.70696897335173    0.30869221318995    2.77362654279940
H           0.19276510657167    2.25392733423471    2.06312229090565
N           0.79427812402355   -2.84301335165227   -2.30805103666136
H           0.83565442296887   -3.03887905271661   -1.31021851428013
H          -0.44979746180001   -1.81918551354604   -2.03651562682684
H           1.65923632398638   -2.39237339369900   -2.57681532968396
H           0.71707579147890   -3.71753549203160   -2.81109989761610
