    26
        -50.45899777  Gyration_radius:  2.47159679113 Dipole_moment: 5.015
 S          -0.02438191104303    0.30511680675806   -1.01582241205159
O          -0.48622067990010   -0.83799620253704   -1.98898880852880
O           0.90794063574861   -0.35124047272889   -0.07260729419557
O           0.62540123474293    1.34444056722672   -1.76610315563960
O          -1.23908421789132    0.71123129561122   -0.32496535231131
O          -0.77828668917999   -0.05944986993711    3.35104792414452
H          -1.67720876505713   -0.08618482246890    3.68476415998254
O           1.69734608485038    2.18359171188232    0.62297351846886
H           1.41195986670664    2.32381784432790   -0.29039474242666
H           1.82578589157288    1.22820746645409    0.67680556008640
O          -2.39850079692805   -1.57293488871092    0.08035000635334
H          -2.29389474394711   -2.01957626334229   -0.76388330665462
H          -2.15140758343658   -0.63286808610217   -0.10097227828811
O          -0.67977988911482    2.08308785498648    1.92208416587219
H           0.23179553541676    2.33164846324038    1.67211061855043
H          -1.06005834596682    1.72606803534940    1.09921690596444
H          -0.68758712663487    0.82265115256077    2.86755249468087
O          -0.32652826538319   -1.75082418659119    1.54792916403161
H          -0.49226468897337   -1.09571579689443    2.35575458383257
H          -1.21593323339068   -1.82350442275515    1.04233596599216
H           0.28376490343439   -1.19768081939246    0.87700978692600
N           1.81933333377027   -0.77918923235267   -3.18248323343143
H           2.04484051590109   -0.83216714506967   -4.16740841319936
H           1.78123725671476    0.19921688394766   -2.90494756818449
H           0.32204550429530   -0.99305298383139   -2.56334414355095
H           2.55968617367359   -1.22669289962193   -2.65801418642966
