    26
        -50.45974641  Gyration_radius:  2.50406597811 Dipole_moment: 6.040
 S          -0.02485891226499    0.82795243107211   -0.56487995671606
O          -0.52508053286485   -0.44963549443852   -0.03238810789558
O           1.13509861277848    0.57913237900892   -1.42852267213781
O          -1.07675885213034    1.52698727401053   -1.29740982402570
O           0.37421650251505    1.71745170917046    0.61042368397028
O           0.22111669702428   -0.33329372486065    3.77581412873898
H           0.11349705875441    0.11441693083881    4.61609704576237
O           2.12505931562670   -1.32657465512437    0.17130823799212
H           1.96858046589954   -0.66528895521878   -0.52811372811535
H           1.25367770446594   -1.69783745715788    0.34652748468987
O          -1.42629898871814   -1.83029114786870   -2.07740881311490
H          -2.34422509373376   -2.03321271763574   -1.88795137959379
H          -1.07336901804646   -1.40323161685961   -1.25829230995536
O          -1.73749301595461    0.50634536554933    2.13381601031181
H          -1.55069477645193    1.43429952228967    1.96648091930381
H          -1.40871092946788    0.04190076961962    1.33915829682041
H          -0.57223381581471   -0.11077900241364    3.23746047844340
O           2.04619819746014    0.55857624158174    2.04445826106427
H           1.12821851982173    1.27399269841786    1.21995314334722
H           1.47647589339201    0.18569895828863    2.75869515512474
H           2.28460053054438   -0.20113450938284    1.46259636461642
N          -0.48449500883800    0.25184815980942   -3.39356752093833
H          -0.95914142105300    0.95002853980411   -2.72446977210752
H          -0.91187664193068   -0.68107077415640   -3.16446750548737
H          -0.49808738720560    0.49528214909884   -4.37781535528982
H           0.46658487620108    0.26843689656744   -2.94750226480375
