    26
        -50.46278504  Gyration_radius:  2.54833720624 Dipole_moment: 6.697
 S           1.08689941746393   -0.58685058752521    0.09644353362349
O           2.22247468681042   -1.09501532653403    1.02320693541856
O          -0.05129124775791   -0.24060709608011    0.95228230001475
O           1.60422837315060    0.62676402051416   -0.54492464531155
O           0.75521739058262   -1.62973533624347   -0.85276054524835
O          -0.80923810425953   -2.41217714478459    2.27062531700741
H          -0.62097166842568   -1.59234160979292    1.76503166870760
H          -0.78211585084581   -2.16686476194107    3.19687650976144
O          -2.22673453319574    1.31188562377802   -1.88608983274979
H          -2.96038545299111    0.75198748029435   -2.14402105513001
H          -1.41652940907641    0.86666414286995   -2.23323334010324
O          -0.02501726371602    0.06537979742687   -2.71415930117980
H           0.75790843979881    0.60795399508308   -2.58320229038528
H           0.14396510641629   -0.71020696543093   -2.14172307181555
O          -1.72603298386486    1.76696293438818    0.67542726165337
H          -1.26334276782431    0.92945288299673    0.90071736475810
H          -0.50647609408158    2.50989017341926    0.41175595792952
H          -2.07100000121301    1.62421069424547   -0.23856149386957
O           1.30854245519795   -3.49079290236692    1.00865280633121
H           0.50692479859974   -3.35548973123696    1.55509639781368
H           1.03398738068461   -3.26891514089478    0.10576246111476
H           2.02183574790100   -2.07178321749255    1.12846356967584
N           0.51664731725778    2.85310066056089    0.13321462056044
H           1.02939604375892    1.93385545972538   -0.13332763842926
H           0.98640104911010    3.29606005653110    0.91539110352393
H           0.48470718052060    3.47661189849410   -0.66694459366967
