    26
        -50.45899780  Gyration_radius:  2.47156897599 Dipole_moment: 5.019
 S           0.25977243365857    0.87199178493131    0.54618687018524
O           0.86247101904841   -0.42542961754295    0.16765680123833
O           1.16651080722128    1.96368009631025    0.31964202726159
O          -1.04939242388103    1.02014955833438   -0.07167701227513
O          -0.04004377390837    0.74543807729153    2.08278627735712
O          -1.60054730778921   -1.97462691904756   -2.31887548144736
H          -2.55327577935252   -1.99638461037700   -2.42837881727488
O           1.66943515394259    0.83124817312584   -2.13499914429767
H           1.69594677791140    0.05919085899487   -1.55571309881939
H           1.63726888897910    1.57675578367725   -1.51957949449094
O          -2.46939320766427   -0.65818365870255    1.30404208767088
H          -2.19462910027639   -0.48157842286948    2.20765741825251
H          -2.10300058000873    0.09510825042903    0.77872327846099
O          -0.95802946857818    0.49077090042729   -2.70910816776235
H           0.00524012789435    0.62078030187412   -2.81134555813903
H          -1.31423638039263   -1.03740852869614   -2.56300039894731
H          -1.14796257312677    0.83308437459546   -1.81697718608659
O          -0.85862961830113   -2.19651218219748    0.07224865478994
H          -0.05260653195844   -1.50558846143652    0.11618388559726
H          -1.59463270928486   -1.72494987882470    0.60889337795089
H          -1.16463041568736   -2.18167585682170   -0.93525147989541
N           2.48792344877021    1.00427074116904    2.61627082001413
H           2.46752053852632    1.56380020216279    1.76642429756363
H           0.87031550557898    0.80418355140089    2.50142718480903
H           3.02903095093064    0.16977866270325    2.43107673219188
H           2.94957421778631    1.53210680909910    3.34568611610995
