    26
        -50.46066632  Gyration_radius:  2.40215792975 Dipole_moment: 5.224
 S          -0.04699325828705    0.52432105001089   -1.61890501522493
O          -0.51440707559149   -0.11977777404846   -2.83809932654135
O           0.99395394871354   -0.30246742587724   -0.97288728819790
O           0.35277900802743    1.90043288386534   -1.73521353970169
O          -1.28686041571688    0.44586048349454   -0.65439900911174
O          -0.15530960366642   -0.54401842079561    2.50484381547891
H          -0.48381171102216   -1.23579571495251    1.92015690332671
O           1.35456898400126    2.77839111632961    0.51909855007605
H           1.52042151748346    3.71715014860667    0.41896745831310
H           1.06241706213911    2.45989914694349   -0.37017375900152
O          -1.73248659959829   -1.96765862384997    0.38202495746439
H          -1.65015080748195   -1.05006424099865    0.03829063177523
H          -2.59841930290825   -2.02567597847611    0.78930563318614
O          -0.96218350168708    1.74179180663874    1.45321944678143
H          -0.72927897245276    0.96369360120262    2.02193565667158
H          -0.12692037782065    2.22697093108285    1.29788367816571
H          -1.18032827466344    1.06455677333822    0.18871694979817
O           2.15704963140839    0.20502204974525    1.38940966899260
H           1.86999975019644   -0.03794982789711    0.48982599501911
H           2.17387343650723    1.16991281706521    1.37790601268898
H           0.77752420360974   -0.37524605949693    2.23750693252863
N          -0.16828839264110   -2.37855961604007   -1.77949923396059
H          -0.88216454966680   -2.60351605613825   -1.06838676892178
H           0.20699902060224   -3.19762842110808   -2.24420620806555
H          -0.51586775557391   -1.60200980112710   -2.44403069361171
H           0.56388405626008   -1.75763483745465   -1.30329146788209
