    26
        -50.45899779  Gyration_radius:  2.47167607146 Dipole_moment: 5.016
 S           0.02111182189491   -0.28968792590217   -1.02072882931989
O          -0.38225582773092    0.87262859470085   -1.99712750519729
O          -0.06744475519919   -1.54916321245594   -1.70707947595012
O           1.35356418022682    0.06690859600674   -0.55705103786616
O          -0.94981930446751   -0.20578527255551    0.09286712475478
O           1.15197108451589    0.63250074273818    3.18019545784018
H           1.93005608755392    1.16191645932314    3.36588153015030
O           1.12499592788492    2.62938241173843   -0.22995236640794
H           0.65738123297582    2.90604186386673   -1.02242453406071
H           1.40569631199617    1.69978722307739   -0.41607264869757
O          -0.09987756198835   -2.72354224358025    0.77890162075578
H          -0.71859386954385   -1.99239309455644    0.90102631043184
H           0.06212957093783   -2.72771494326631   -0.17465221709014
O          -0.43597961952574    1.71517472113210    1.56061162523434
H           0.17311867694251    2.23805676593882    0.92218851001790
H          -0.74463339674751    0.88749888114859    0.97021980711180
H           0.18919145752025    1.29594099632930    2.29710848745172
O           2.01002967952804   -1.27917297205701    1.67954921847577
H           1.48117183363714   -0.17696344651024    2.67375740989148
H           1.35626972860113   -1.99713277102735    1.56818411730535
H           1.99347989219707   -0.81176815690639    0.82491637574023
N          -2.43884423988576   -0.49276037309793   -2.80300241452355
H          -2.81400801430746   -0.61810678591913   -3.73429425930300
H          -1.22462887476672    0.53348309849488   -2.42457436664284
H          -3.20598389189784   -0.49806491505570   -2.14352379498597
H          -1.82809814033919   -1.27706425158542   -2.58492416511499
