    26
        -50.45899783  Gyration_radius:  2.4715663058 Dipole_moment: 5.017
 S          -0.06797233024463    0.38205215291995   -0.98779037111419
O          -1.24749708895172   -0.25022176289966   -1.80995744348154
O           0.86034877149199    1.01458216986941   -1.88402674754747
O          -0.71865272677611    1.27664886237936   -0.04225296476778
O           0.55210253553357   -0.75647190592644   -0.27422265363202
O           0.00992340555293   -0.01246245955761    3.44081641721545
H          -0.67930160782230    0.38981212394564    3.97307441419265
O           2.67477468365042    0.92267658988985    0.18017062324532
H           2.29081654284986    0.03753978034280    0.21800265165589
H           2.32592870032909    1.28710075121813   -0.64502380526928
O          -2.79083878412875   -0.11807298831725    0.65551914604686
H          -2.13127272465102    0.57545739785046    0.40734563690213
H          -3.11055295615976   -0.46155435244031   -0.18294504841229
O           0.92141097383592    1.91583290200678    1.99385231445361
H           0.25193417449074    1.89525087032815    1.28634877898019
H           0.44805177779106    0.74437430448758    2.93557910333777
H           1.75461446018190    1.68743841623049    1.53692256294695
O          -0.87080124692710   -1.49039131843769    1.60863139481426
H          -1.74771668285994   -1.04156478985630    1.32288414380148
H          -0.21330172340186   -1.25979499840054    0.80657101082707
H          -0.49970774441839   -0.93463899589960    2.42251135544123
N           0.44622633272915   -1.25459908875678   -3.50269486537839
H           0.98408856473140   -0.43162217827811   -3.23976865223701
H           0.40444722404680   -1.31049325333476   -4.51211368213761
H           0.93057002598600   -2.07183042298750   -3.15483613171584
H          -0.77762256684830   -0.73504779640439   -2.55259718816660
