    26
        -50.45974660  Gyration_radius:  2.50442031514 Dipole_moment: 6.042
 S           0.40596931551135   -0.63468995347729   -0.66100988169056
O          -0.32050891743167    0.57113636221318   -0.23187586977556
O          -0.22325726015409   -1.84636103517820    0.02312161720136
O           0.26861050798523   -0.83268647810274   -2.10108833501825
O           1.81901386947090   -0.51724261479608   -0.28313736959922
O          -2.70491015455360   -0.62707221937698    2.59227744860706
H          -3.41236329200668   -1.20948413732276    2.87239606891467
O           1.26494663182923    0.62429351952580    2.07465498979846
H           0.56195603385887    1.16629140340705    1.70061675110712
H           1.68894223476059    0.21123788123389    1.29965625771445
O           0.64547675868500    2.57969669441893   -1.62286696483731
H          -0.09714248918821    2.98102343932795   -2.07796175486201
H           0.25412574740399    1.89478795890990   -1.02657637031865
O          -2.75374406194533   -0.49646738289231   -0.09419348863562
H          -2.50703632879285   -1.37487324976382   -0.39669501418364
H          -2.81983685752389   -0.49413584424091    1.62381380073709
H          -1.93744387672014    0.03318800309861   -0.18555105596792
O          -0.20307974078046   -1.55234500211299    2.49467461119668
H          -1.11496633544274   -1.21636905312216    2.66579385102558
H          -0.18600393490383   -1.77915790266210    1.08635980973352
H           0.39378053028827   -0.77159141738905    2.57711060814771
N           2.24523523891130    0.68140294014249   -2.51332295542250
H           2.97811368228103    0.68465872082501   -3.21406841988454
H           1.42523258873289    0.00402532429953   -2.68586341313401
H           2.53196783805913    0.30423888486973   -1.57575204408450
H           1.79692228163977    1.61649516819075   -2.34051288680951
