    26
        -50.45974659  Gyration_radius:  2.5041195183 Dipole_moment: 6.043
 S           0.03386507041989    0.27155940196138   -0.96407392553228
O           1.09984379784752    0.70317910164971   -1.86363018562877
O          -0.42105409408796   -1.10875553312274   -1.43316880605349
O           0.53528228895852    0.15223149262338    0.41451525101261
O          -1.09056265500520    1.21374812312421   -0.99800604980252
O          -0.35378131856769   -3.46294781227006    1.51570656868985
H          -0.28323952911951   -4.40589007938432    1.36066440522766
O           1.52565662677654    2.49510100102095    1.07142815833169
H           2.43854149624501    2.34613951555293    1.32451941598823
H           1.13877106896091    1.59650772380688    0.92749037379293
O          -2.10618434114429    0.34094983902208    1.32087103001319
H          -1.93567715830950    0.78829729671556    0.47130506049559
H          -1.23548888894253    0.25700481517977    1.72428681569439
O          -2.12778209365585   -2.03353606942860    0.12497737558690
H          -1.57908860659548   -2.61496897470470    0.70342878409774
H          -2.33244314243950   -1.23206290109851    0.66201722024732
H          -1.19051344075612   -1.51530731970679   -0.81770692756805
O           1.65096657479009   -2.25294277839191    0.19110293011758
H           1.36000959571508   -1.33945414430334    0.38091489545572
H           0.45526587215363   -3.05566017745733    1.13061482675949
H           1.45443726114103   -2.38048199405950   -0.74113690003131
N           0.60241557986771    3.11698747809618   -1.31942692699717
H          -0.36427570449582    2.72652154845181   -1.19041250774856
H           1.03496770084283    3.17986799974629   -0.36326803806650
H           1.04194454939818    2.24242937294915   -1.76959865157716
H           0.64812350997970    3.97148308401845   -1.86341420250897
