    26
        -50.45974648  Gyration_radius:  2.50420200792 Dipole_moment: 6.039
 S           0.47204772584407    0.73128356114593    0.49824133948146
O           0.33161405487823   -0.33075800740039   -0.51086120606685
O           0.04435736718139    0.16972907954963    1.85240435605185
O           1.86792774623035    1.14122671351879    0.62271301584662
O          -0.37566383520519    1.87163627176991    0.13230358354809
O          -1.48257883132828   -3.23998892863249    1.31197317177449
H          -1.50122236184369   -3.86551471761628    2.03759830553725
O           1.30939717317866    0.61527021395257   -2.75837168520651
H           1.99824271208967    0.00831450959514   -3.03535364071449
H           0.88324593090483    0.19392518658978   -1.97184084003506
O          -2.38338713439559    0.31722482749977   -0.71782234701427
H          -1.78277773445882   -0.30963850546617   -1.13529675882455
H          -1.80891309659026    1.05767122439082   -0.44839568956925
O          -2.27485981948030   -0.72498584280597    1.72575548336533
H          -2.55702391317039   -0.36683302150420    0.85126859374562
H          -2.11281804829541   -1.68817223709657    1.58517407126396
H          -0.96370662518105   -0.17701969734512    1.85039325914829
O           1.05146558752117   -2.38602822060990    1.01745174761503
H          -0.53440359132820   -3.03902624522740    1.14092069651242
H           0.85349785636344   -1.71597845534250    0.33404005930730
H           1.24287152833172   -1.87503204550391    1.80877261205142
N           1.57167903481732    2.77948500419978   -1.27389286192915
H           1.57249126154442    2.11610684366582   -2.08942575497408
H           2.01556285194461    2.22745503697955   -0.46172038703617
H           1.97218763731220    3.69074199639246   -1.46731583479662
H           0.59076652317903    2.79890545531489   -0.89871329906423
