    26
        -50.47166724  Gyration_radius:  2.38843561028 Dipole_moment: 3.168
 S           0.26831301302172    0.97125818663063    1.00129322676803
O          -1.04013252706463    0.87725332546648    0.34786567478303
O           1.13527335304976    1.89236738497526    0.28292880707238
O           0.04335040249898    1.53977711299213    2.42736490109216
O           0.88247203446345   -0.34488278923084    1.14073551197578
O           2.61756064552768   -0.33122032432410   -0.87153530483734
H           2.05514079804248   -0.46267658099736   -0.08236020015635
H           2.95166912388795    0.56424440504084   -0.78021197550128
O          -1.15765266544350   -1.43957675891199   -0.99834405595134
H          -1.19513732470886   -0.60142012693336   -0.49965835574354
H          -1.06639106001086   -2.12140768404100   -0.32292098125540
O          -0.65576948408523   -2.38100220091129    1.69959305641833
H          -0.00918959124564   -1.66772896227769    1.48723357931331
H          -0.16804977670360   -3.04953777168944    2.18269877264334
O           0.69124799273657   -0.53506149307499   -2.69495722855733
H           0.23627400225055    0.82124206493831   -2.41761067303916
H           1.50980764699184   -0.59160401934937   -2.14782756096072
H           0.01760755948626   -1.06038601507193   -2.20534614840999
O          -1.93346679831741   -0.14609350302678    2.69499249846890
H          -1.62959318222668   -1.06021129599244    2.54692761971921
H          -0.68119736759198    0.96736625957059    2.78427477639508
H          -2.13144896119243    0.19262812909743    1.81079439805273
N          -0.10888260747005    1.79178863621801   -1.99274579237979
H          -1.03035177414792    1.63718429189100   -1.57594965396110
H          -0.11233152474133    2.55013005518578   -2.66654271144579
H           0.51087809299022    1.98756967376402   -1.15069218048555
