    26
        -50.47166720  Gyration_radius:  2.38843150783 Dipole_moment: 3.169
 S          -0.07428601923118    1.25908109325989    0.65475727653872
O          -1.30039086729201    0.47838053102600    0.52769576434586
O           1.09569043060094    0.38686368830473    0.79000910561947
O           0.09493194928725    2.17460128127920   -0.46293737523606
O          -0.18560985792483    2.10319528866320    1.95193028812818
O          -1.52625846221553   -1.71716069647989    1.92476059998647
H          -2.44673340929032   -1.90146643725735    2.11689668044777
H          -1.51867886420983   -0.90575560328271    1.36477848140057
O          -1.72972720332671    0.59416696159467   -2.09187883882346
H          -1.52086253894243    1.51919682549851   -2.24164276298545
H          -1.71617870845922    0.49609878994102   -1.11893776548790
O           0.46529550176788   -2.04138074010552   -0.15874364273087
H           0.74696870779203   -1.19440790849432    0.23616182671201
H          -0.25278741410333   -2.34736872146953    0.40705388593769
O           0.31102407614816   -1.02845026720970   -2.62133144619339
H          -0.54106458018931   -0.53359972380553   -2.58169461482142
H           1.27181502367680   -0.00645835753508   -2.22606291699593
H           0.31267359997127   -1.60318826796937   -1.82186378284068
O           0.21922921545147   -0.08947257903119    3.31170184081781
H           0.91299605881100   -0.18577672967789    2.64447001317229
H          -0.11862585630686    1.42234854006696    2.66753907604326
H          -0.44226830812350   -0.76646936375972    3.07943469796584
N           1.88059883405901    0.79053934847494   -1.74066067701913
H           2.57579461172997    1.19973396495365   -2.35577105545743
H           2.29582732415743    0.39142382115229   -0.89510233684365
H           1.19062675617462    1.50532527185500   -1.36056230166205
