    26
        -50.45899784  Gyration_radius:  2.4715355168 Dipole_moment: 5.015
 S           0.38314669912246   -0.50844365607313    0.84987656643831
O           1.37738641754213    0.40081391084258    0.30000279211434
O           0.84936048018827   -1.84607421770569    1.09169755627138
O          -0.04965973248515    0.15277528553236    2.20728313617947
O          -0.83873217347271   -0.49912093778532    0.01511889019462
O           0.00293209805921    1.77109951308950   -2.94960332410503
H           0.51524562077453    2.57031785350806   -3.08727289800052
O           0.47018557671820   -2.29561566528990   -1.59448548266043
H           0.88298711366192   -2.48064629932980   -0.73958151181788
H          -0.33942757240733   -1.82510458225841   -1.35888462063475
O           0.34744389945892    2.71102793300395    0.87293598855977
H           0.92111494309570    1.92617272654477    0.69269213214008
H           0.05783289489841    2.59762386278588    1.78202054379106
O           1.74860013911404   -0.02175076641274   -2.33220944742676
H           1.38337871890299   -0.92817590379775   -2.34771136345333
H           0.67526296720107    1.03205877581908   -2.80183918899940
H           1.83512524612620    0.18047004951909   -1.38310757967271
O          -1.31822557544428    1.78011743801993   -0.81152885973993
H          -0.73227792761417    2.30808603977796   -0.15585830285680
H          -0.82736912791012    1.80758262898089   -1.74275927246463
H          -1.20320304295460    0.77757737776511   -0.47889448137363
N          -1.32941333934336   -2.00679962972958    2.87155944524264
H          -2.21290296353918   -2.11727523456654    2.39122223231627
H          -1.38455312227200   -2.48549856766181    3.76125759450013
H          -0.60465395694004   -2.44342923766841    2.30606395576904
H          -0.60958429046538   -0.55778870692520    2.64200548969117
