    26
        -50.46066643  Gyration_radius:  2.40225417555 Dipole_moment: 5.231
 S           0.48868619618110   -0.65848946049040   -1.49109149322406
O          -0.25315982669527   -1.32555355685458   -2.55143873471636
O           1.91886600559885   -0.62577619494415   -1.63430728232136
O          -0.07435833669948    0.68539497029791   -1.24336330148259
O           0.13592085260965   -1.49196672680521   -0.20489139627394
O          -0.54881321984277    0.74892313368224    2.39426775657824
H          -1.30075277901845    0.41606945244318    1.89226394406922
O           3.01858810914592    0.80421849129076    0.26380665726938
H           3.96971481216400    0.72171958138306    0.17792351665913
H           2.63542465819305    0.32942190903894   -0.51415373366436
O          -2.30918502408768   -1.05383364881811    0.75885991620607
H          -2.56177177922394   -1.71757726800330    1.40297005841620
H          -1.39933293335368   -1.28529545674193    0.46658773058340
O           0.70287746831715    2.38053043591606    0.68384809178396
H           1.64587176162860    2.18030943602195    0.72978176434073
H           0.39417972304113    1.89023118070502   -0.10038341389103
H          -0.17280278177267    1.49286524655259    1.86975795374773
O           1.48552128057380   -0.82410367167010    1.78532702799366
H           2.14784368200516   -0.20560883616847    1.41680508354702
H           0.78491880266262   -0.26240568507873    2.20557255302196
H           0.76803206514413   -1.26858769173126    0.60441409427827
N          -2.36626972202314   -0.18268323035464   -1.79547007948457
H          -2.74349938784794   -0.57464837622972   -0.91791718107457
H          -3.08092242145347    0.20126935675411   -2.40338592227932
H          -1.59114828859433    0.50547545038828   -1.52318746652908
H          -1.69442892656576   -0.87989884051800   -2.27259613356601
