    26
        -50.45974657  Gyration_radius:  2.50438432216 Dipole_moment: 6.043
 S           0.79429953989524   -0.10347722591206   -0.60302053788406
O           0.59438207152186    1.05600734291460   -1.47978723076351
O          -0.49045245329225   -0.49139348419166    0.00125116634353
O           1.37223794173307   -1.22091458824401   -1.34404026159084
O           1.76903821241158    0.24645288891509    0.51926580769915
O          -0.12472110967243    0.32313782552931    3.78308705222349
H           0.35359333578526    0.19645033258016    4.60366237919421
O          -1.14837292034304    2.22240961106642    0.18533700503728
H          -1.57477652084429    1.38545164542680    0.39879872349433
H          -0.53659061456279    2.00228191567071   -0.54142137883961
O          -2.03861278394886   -1.31179775054474   -1.95617147784255
H          -2.31035369930590   -2.20468907978798   -1.73594115151336
H          -1.54415504503094   -0.98103708047838   -1.16625745390425
O           0.81803987641844    2.03542894704814    1.96513935325541
H           0.43892620466328    1.51244593849134    2.71105413026807
H           1.41736554808902    1.04625939917900    1.13002415416086
H           0.05030983014314    2.32042874777849    1.41558693150412
O           0.47378470184813   -1.72926061378063    2.15005236185625
H           0.00730290084047   -0.49607783496439    3.25375597154087
H          -0.00263653151821   -1.38171649254869    1.37064536240588
H           1.40388904583070   -1.61997057149032    1.93344344184512
N           0.04639903968305   -0.56941120238640   -3.39036637358142
H          -0.90529804057582   -0.91555983942084   -3.10815310764452
H           0.24032612004283   -0.62247740391648   -4.38423771391040
H           0.15958216325642    0.38599143613391   -2.96865345844834
H           0.73649319696575   -1.08496286305141   -2.74305369490460
