    26
        -50.45803547  Gyration_radius:  2.54942797343 Dipole_moment: 6.265
 S           0.22069881099066    0.19930978724563   -1.09111066989578
O          -0.06522217557908    0.02166375844893   -2.51233892711658
O          -0.23378253039043   -1.14616468168043   -0.43184441499326
O           1.61308876852260    0.41756313669756   -0.78277172687254
O          -0.66014789830256    1.22945511056519   -0.51410710678195
O           0.86938598238657    0.99487101832067    2.97290062757698
H           0.09080729979049    1.31940009705991    3.42679395322055
O           3.21591840626729   -1.12407742586767    0.70144142676589
H           3.77948290053333   -0.50065603636723    1.16402328224287
H           2.72575406470271   -0.60343154017594    0.03357364996406
O          -2.76349249455308   -1.97855056329409   -0.88854718994439
H          -2.74407894863382   -2.86116049593081   -1.26241107332581
H          -1.84965214670888   -1.78878445319217   -0.59324408201789
O           1.17753321553894    2.56922132554563    0.85184799603594
H           1.88663591532628    2.15929266869971    0.34377899047171
H           0.37540613913344    2.24795191516397    0.39593942771599
H           1.04668062655844    1.63604836097442    2.24185006804314
O           0.80436849780771   -1.41181596944571    1.82151806832437
H           1.74198000894144   -1.51761995464867    1.54714273982467
H           0.77921403068177   -0.55416167340415    2.30819621727486
H           0.17934334138429   -1.25663655478889    0.52842930250695
N          -2.50254256334893    0.39884059311857   -2.07726034581792
H          -2.09690149367940    0.94640608108608   -1.27376997356955
H          -3.15410070590226    0.92441220279659   -2.64888123771216
H          -1.54423736695497    0.17573945426934   -2.54793182629690
H          -2.89213968450860   -0.49711615120167   -1.71321716562026
