    26
        -50.46066642  Gyration_radius:  2.40235658123 Dipole_moment: 5.232
 S           0.58146099816448    1.01748168183302   -1.23318150500657
O           0.65015634275849   -0.45778583903573   -1.17722558706769
O           0.00163011025240    1.44519352100721   -2.49836715692669
O          -0.50546570872579    1.41592394869346   -0.16847908771293
O           1.82813086638890    1.62980341164049   -0.86195928975408
O          -0.88029138910161   -1.25819807133641    2.05887051670534
H          -1.49473209639411   -1.21466113070837    1.31805715581764
O           2.78676153441102    0.55639134906022    1.32577926423108
H           3.56409086930815    1.05628456144379    1.58007364188066
H           2.50109735523346    0.92673458380483    0.45476455901748
O          -2.64031922464454   -0.17752188047896   -0.12306409515856
H          -3.36022908993108    0.20762411580424    0.37946401450791
H          -1.89810555178617    0.46605397711426   -0.07910264600740
O           0.28131190109645    1.11254860799493    2.18054283461944
H          -0.13861841948541    1.37124740113539    0.81508436166534
H          -0.17690658267918    0.24724636594183    2.33601048023318
H           1.23193805970785    0.90485663967280    2.07980684102417
O           1.45424771150288   -1.91159981378920    0.92824266639720
H           1.22506279645032   -1.49408899959786    0.07749353170039
H           2.12961716511135   -1.33114980709129    1.30025412253685
H          -0.05928716246020   -1.67857605599451    1.71372466556212
N          -1.46945777074219   -0.59869091290798   -2.51855760539828
H          -2.24341520454050   -0.54347734087606   -1.83740802457302
H          -1.07800819401728    0.38298118989604   -2.73898004238090
H          -0.59956954776853   -0.91492050823770   -1.97854793808535
H          -1.69109978819070   -1.15970100500562   -3.33329566794270
