    26
        -50.45803548  Gyration_radius:  2.54947652903 Dipole_moment: 6.265
 S           0.14920926524822    0.08353511876825   -1.11836459412060
O           1.36065515234066    0.83958196712429   -0.91280739813984
O          -0.36886421561977    0.12698895774126   -2.48323029239143
O           0.26043517036047   -1.31023651270091   -0.65453513809632
O          -0.98972566075845    0.71584835205474   -0.24967585633636
O           1.69601321523049   -0.36499302510850    2.75202132513470
H           1.39808565552925   -1.16214629328486    3.19164657447472
O          -3.46592741442517   -0.34506892248319   -0.45677438873066
H          -4.08686061337118    0.34408035310542   -0.69907308739880
H          -2.62748127229510    0.10996707961928   -0.23707997275030
O           1.71833865046938    2.94225928300733    0.69947054897580
H           2.60844997845578    2.82983370601546    1.03899107296572
H           1.61303091704154    2.27890057804230   -0.01203987126099
O           2.68407880670557   -1.15596540518383    0.41320788364785
H           2.86729994494573   -0.33895155071015   -0.06421601675652
H           2.15424940310444   -0.66214127492347    1.92822046448133
H           1.81948652944143   -1.42696521259398    0.04776490238785
O          -0.10065741317193    1.44455153537884    1.96492930660096
H          -0.63047795897498    1.00464712946155    0.69502887434617
H           0.51417433924255    0.76143811942123    2.32320492168717
H           0.48356138991934    2.17492292811077    1.66360264639918
N          -1.85622523281718   -1.82643965601317   -1.98902235668013
H          -2.06421826112475   -2.60960315985752   -2.59805424365956
H          -1.36128862253340   -0.98123532423067   -2.46878182657753
H          -2.68845532660634   -1.45826305845098   -1.48024447714795
H          -1.08688640633642   -2.01454568232300   -1.29418901105613
