    26
        -50.45803548  Gyration_radius:  2.54947941161 Dipole_moment: 6.266
 S           0.91810732195253   -0.29554258723689   -0.59158050489799
O          -0.03595702361683    0.47221249951779   -1.41039445818624
O           1.66076710468566   -1.23852139222844   -1.42370833232830
O           1.74173365510295    0.54508884621018    0.24295116537647
O           0.03313837066161   -1.20210559738777    0.32856791027256
O          -1.30767519684843    2.56331213876144    1.51703383051050
H          -2.15890986709149    2.75154506546676    1.12023742681760
O           1.78355764076642    0.65393357574936    2.91410881928175
H           1.92911638430589    1.58170309603210    3.10973032948685
H           1.91976530436818    0.55469841330005    1.95027608593134
O          -1.56876190776502   -3.02163326023691   -0.86442808200552
H          -1.37045548470584   -3.89362873320528   -0.51869349622610
H          -1.08720038340382   -2.38777437830787   -0.29465240312012
O           0.48067346462232    2.88064276907337   -0.42543027919074
H          -0.63180134295154    2.77691847276570    0.82820613391321
H           1.31147511027385    2.57237220414444   -0.04627820275733
H           0.18042183764635    2.10572244011674   -0.93911999273237
O          -0.75943636990552    0.07761170874400    2.31857823237909
H          -1.04187349788530    0.98289445606222    2.04704601620035
H          -0.32557657624587   -0.66538870129816    1.15814551449590
H           0.10289460280406    0.20866548503353    2.77104629569581
N          -0.38415391033692   -1.63357335820571   -2.81465945169385
H           0.61737900723077   -1.68431797052732   -2.38592786716800
H          -0.98601608613712   -2.30601955492860   -2.29255046834114
H          -0.59065130962254   -0.65716043247571   -2.47701304018949
H          -0.43056084790343   -1.74165519493865   -3.82149117152610
