    26
        -50.45803549  Gyration_radius:  2.54946503754 Dipole_moment: 6.265
 S           0.86232159699045   -0.06836940459368   -0.72836396796548
O           1.48931972933673   -0.61649773685946   -1.92822071088066
O          -0.04287038804276   -1.23028645613608   -0.19720399258760
O           1.78774403395091    0.30879899933263    0.31220253844290
O          -0.06939613774938    1.01569134603258   -1.08436375463309
O          -1.03155657967468    1.76522815917337    2.53066752483924
H          -1.88426748912334    2.14318552324513    2.31260186110776
O           1.96833099443261   -0.70426033547650    2.77997266199197
H           2.04938251006355   -0.40086998253322    1.85327470663743
H           2.19437427394829    0.05000097008286    3.32790253322397
O          -1.83475852208315   -2.31008520084075   -1.90721381609367
H          -1.68660728978144   -3.25543866451057   -1.96644310210554
H          -1.27920613200456   -1.99426029961803   -1.16565945055726
O           0.67830386816792    2.77065624931295    0.75926403325798
H           0.29445319532513    2.29449920074665   -0.00256415875911
H          -0.37592316760872    2.21145292086711    1.94078079200107
H           1.50043786208237    2.29194086855642    0.91395584579369
O          -0.63757528393492   -0.85306256842461    2.19660572633818
H           0.25343615158492   -0.96467830204500    2.59563423920617
H          -0.86251702587213    0.09613844231889    2.34310106471611
H          -0.31890964782066   -1.06876432174406    0.80408816174379
N          -0.64514005302773   -0.29776176952182   -3.19887603311598
H           0.36945381541701   -0.57083237480216   -2.90606161350709
H          -0.76015568545058    0.45938188150603   -2.47537026782403
H          -0.74852662574160    0.02408685718167   -4.15452000135258
H          -1.27014799338360   -1.09589401124895   -2.95519078991900
