    26
        -50.45491415  Gyration_radius:  2.43187004635 Dipole_moment: 6.959
 S           0.96156834459732   -0.11816987839348   -1.68265656929257
O          -0.35662157717524   -0.81448526316119   -1.79768828507402
O           1.82919233103477   -0.39588624259363   -2.77120983827744
O           0.56880474452219    1.40680699286959   -1.69946915722883
O           1.51950910238480   -0.37523007981330   -0.35663664638059
O          -1.32301647148983    0.23086556357704    1.95547282842721
H          -1.81586930696555    0.07529765343702    2.76136020631891
O           2.85031264886383    1.57227570745545    0.84757335938303
H           3.49946395219261    1.91232235921234    0.23019429127985
H           2.49753483812410    0.74965035397345    0.44579679087155
O          -0.99504207065878   -3.05984268323505   -0.51493678030789
H          -0.54231997275007   -3.81300513536837   -0.89724448324276
H          -0.77128069936207   -2.29241561805447   -1.08195720489950
O           0.25976026080212    2.21695105621766    0.75280312827669
H           1.21436339190163    2.18397213135814    0.97405824731834
H           0.49537259182292    1.71738741928970   -0.75586675209359
H          -0.16377624902625    1.57937238638556    1.34801784841299
O           0.22699351940935   -1.73809241585845    1.50838066901855
H           0.84871269123905   -1.29392767850000    0.89331431211742
H          -0.69620105678900   -0.56708336911781    1.84633291732963
H          -0.26907355236219   -2.36239148850587    0.94239593316893
N          -1.99861967975194    0.65258513595375   -0.58500262066745
H          -1.29434197817904   -0.02616856691253   -1.14881077397079
H          -1.72194950809133    1.61165064770340   -0.78792417918704
H          -2.95738364559545    0.47965247163438   -0.86970076948443
H          -1.86609264869101    0.46790852044724    0.44340354818548
