    26
        -50.45450911  Gyration_radius:  2.45160594103 Dipole_moment: 5.286
 S          -0.75586195620686    1.44922712774469    1.29889822812194
O          -0.77442298927951    1.10931479029493   -0.11231144301110
O          -2.10315078090784    0.99855950316455    1.90405674609536
O           0.29273651753244    0.58239375804334    2.01639687412815
O          -0.48690509952669    2.80848011975402    1.60032413711391
O          -1.33591180047582   -2.31160762757032   -0.73711895528209
H          -1.53938124142906   -3.12158265025799   -1.20621044411122
O           2.40504609153034   -0.58877776631179   -0.83658996485904
H           3.33918855685911   -0.80015611504661   -0.81796706752235
O          -3.10829972917322   -0.37360968079009   -0.02987941293806
H          -2.57645097305842    0.41654288303453    1.23437967766363
H          -2.79476218539748    0.25563977116196   -0.68801912006479
H          -2.57020606234879   -1.17898671496554   -0.16796326128444
O           0.69976646116387   -1.68068988560918    0.97393858683913
H          -0.07603168871761   -1.99926217243760    0.47730059383472
H           1.36286828804059   -1.40626941983572    0.30634179108261
H           0.40565371853373   -0.36521280925226    1.63242834990877
O          -0.04878747517640   -0.52754387015196   -2.13238546521864
H          -0.87922103810115   -1.70147378108044   -1.38453849898955
H           0.89553228918583   -0.63974058317396   -1.94654029716605
H          -0.32599762187556    0.19520752524607   -1.54245397519576
N           2.02879306113265    1.89711252304843    0.05345490275862
H           2.50422371282364    2.73032234238648   -0.27294739004913
H           2.31774811931971    0.35827519292569   -0.52472183351463
H           2.08117884165284    1.89189549103612    1.06585469625499
H           1.04265499384228    2.00194206859392   -0.16372747459570
