    26
        -50.45450934  Gyration_radius:  2.45186385185 Dipole_moment: 5.289
 S          -1.05768258611575    1.33828444756672    1.20532432347057
O          -0.28247458116670    0.33235853297650    2.07288471983627
O          -0.84861066362465    2.63552933574435    1.73844211060737
O          -0.68158973137929    1.16158986387408   -0.18559589195258
O          -2.53380917799040    0.90764010629956    1.34696178430259
O          -1.12824740869634   -2.13062823200387   -1.36460963512653
H          -1.21230966554238   -2.86704956132767   -1.97129194254781
O           2.52848860915935   -0.63403330239830   -0.19710477298091
H           3.41497870090492   -0.89973269883173    0.05053803997147
O          -2.97873310506700   -0.18292588941563   -0.94350039972338
H          -2.81045829976039    0.43048400013225    0.50616508099712
H          -2.47665265444316    0.49649545519375   -1.40577100582963
H          -2.44344155069184   -0.99792418816405   -1.02491897875821
O           0.35033428828391   -1.81898545698971    0.91288253551136
H           1.18336944897934   -1.51182586538751    0.49785290556888
H          -0.08748195988498   -0.57049045168511    1.62036863909651
H          -0.25882111666307   -2.03362116926615    0.18294576236839
O           0.54739372272843   -0.28004794037393   -2.10813254900649
H          -0.49062006280241   -1.47945237850928   -1.77632654598018
H           1.39631999582857   -0.46842627875029   -1.68064071705903
H           0.13175710394932    0.38710541692347   -1.53413636080793
N           1.97700059691443    1.75277373605648    0.85706204925055
H           1.73718024985028    1.62953537892856    1.83431572523760
H           1.09729925917989    1.94078775217397    0.38648312785275
H           2.54679918689650    2.58759566731163    0.78506244096932
H           2.38001140115189    0.27496370976064    0.19473956471721
