    26
        -50.45450916  Gyration_radius:  2.45193946656 Dipole_moment: 5.295
 S          -0.58650855971772    1.86988937340221    0.72389875342129
O          -0.03250133156237    2.87381416392656    1.55819798223478
O           0.03960919384503    2.00826088397939   -0.67399491009262
O          -0.42344387455468    0.50446407810012    1.18914166178703
O          -2.09483234886655    2.10619764549134    0.49257990587829
O          -1.72434287175926   -1.91032029299234   -1.02572009083609
H          -2.03880148821721   -2.75152327164669   -1.35882674186948
O           2.28367043929803   -0.98415393600790   -0.80646244606973
H           3.11271394322141   -1.07618906117865   -1.27769560899408
O          -3.03354641901961   -0.28210186220411    0.71590038112775
H          -2.70715638934388   -0.83097881109678   -0.02531126413186
H          -2.44800125505474   -0.48073167345953    1.45424542941054
H          -2.56643299410614    1.21877611228619    0.52371532776079
O           0.22148271000215   -2.07028757085108    0.69876664951230
H           1.05120443726307   -1.96096218088957    0.21034157702096
H          -1.01086012537661   -2.10669591371984   -0.35306740612172
H           0.03454069506951   -1.18490919344087    1.05707370623759
O           0.04213005275040   -0.10061670645769   -2.06187191492142
H          -0.02354716792983    1.16724934368849   -1.26298459926477
H           0.86820115099065   -0.49555665593204   -1.71257791563398
H          -0.68034486518997   -0.70439451935185   -1.80999770263481
N           2.40266195198378    1.12386040422112    0.82256755673092
H           1.53928892109841    0.98262626165631    1.33760261913736
H           2.25469036898472    1.96552909660396    0.27720732708240
H           3.13248096018432    1.32125675064424    1.49723016253784
H           2.38764486607460   -0.20250246496805   -0.18995845922485
