    26
        -50.46438032  Gyration_radius:  2.41491827692 Dipole_moment: 4.126
 S           0.37506895633047    1.25716123508521    0.97586245664450
O           0.56260162088310    1.20657061799855   -0.47398262985676
O          -0.76611079503848    2.26096999544430    1.27190300145885
O          -0.02072680766195   -0.05793942822959    1.48923901449082
O           1.58430175660530    1.71258638838559    1.64625993418999
O          -2.43944510136738   -0.73821254104153   -1.48729792344349
H          -3.25333087253678   -0.87716509280308   -1.97344597508954
O           2.05687657910679   -0.90966695239532   -0.91073615969709
H           1.60512037304507   -0.03584157557524   -0.93397178146779
O          -2.59937242436111    0.44700732184187    0.99073388491161
H          -2.66284006455241    0.06198225679465    0.09485291561075
H          -1.89448016133859   -0.05516679717165    1.42692381007434
H          -1.60704607358655    1.74432571854668    1.14016427627995
O          -0.23494402032430   -2.05820848598959   -0.27901579586718
H           1.30007509525133   -1.54283857833500   -0.85232199974699
H          -0.21564183053621   -1.39896215405639    0.44255931457821
H          -1.00628382922910   -1.81531739066078   -0.80970877379706
O          -1.06821092226000    1.26773296289354   -2.52788748991154
H          -0.48292852172477    1.37180703501346   -1.74416814268900
H          -0.47994107160460    1.13311542198416   -3.27315153014388
H          -1.96320368678917    0.00184453517579   -1.93804024698435
N           2.67751205981820   -0.61516712990006    1.56886458866562
H           2.35046000781003    0.40821860580704    1.68563406015704
H           3.63147974532252   -0.75869277706825    1.88488223041967
H           2.01410814836195   -1.18420970773718    2.09167972623727
H           2.53690185034924   -0.82593348401708    0.49416924496805
