    26
        -50.46438030  Gyration_radius:  2.41494637658 Dipole_moment: 4.127
 S          -0.88464146333870   -0.42915765030329    1.30640501295308
O          -1.78409162371904   -1.67938401679955    1.14623320688162
O          -1.32672274144814    0.58526839728539    0.34461336416421
O          -1.02287590756339    0.07559321682610    2.66477277380200
O           0.49458547951091   -0.83110557154051    1.03053844449523
O           0.37296385098172   -1.20903473399593   -2.66595008911521
H           0.47327882247845   -1.69243143848856   -3.48712298789291
O           1.82939840001045    1.41253257878622    0.73768723122618
H           1.53080107777674    0.49439028602692    0.92776459954763
O          -2.07033394910213   -1.29712609510779   -1.40377953297012
H          -2.08270903194548   -0.38784643573124   -1.06861309421177
H          -1.24560442113736   -1.36057881992133   -1.92403279583678
H          -1.95756268611322   -1.75072098195289    0.16837821170416
O           1.60999300049276   -2.46245365075607   -0.69472232203955
H           2.54694708307760   -2.33485786944401   -0.53552809523903
H           1.15021728893234   -1.95800838358422    0.01364327174391
H           0.87602330888558   -1.71117570032667   -1.97854391746607
O           0.43817605823520    1.38187426424800   -1.50601776488993
H          -0.28934235259108    1.14477824113313   -0.89763173080500
H           1.53956409864100    1.54480239119487   -0.19803350708978
H           0.54253096340119    0.60609281384639   -2.07424005333298
N          -0.15114337385060    2.41401832154657    2.03941351741967
H          -0.82309353945851    2.71545399187395    1.33590684946788
H           0.77462666263941    2.10959501198784    1.52025332402880
H           0.00071608930558    3.12527465922235    2.74765708580181
H          -0.54170107410016    1.49420716398546    2.45094899765979
