    26
        -50.46438030  Gyration_radius:  2.41493571408 Dipole_moment: 4.126
 S           0.10046430712299   -0.38549849344641    1.58589820360279
O           0.59283488927000   -1.26449648332860    0.52071601272404
O           1.11555111674256   -0.23345610272103    2.61818249609954
O          -0.29417667403802    0.91237734481381    1.03853885906121
O          -1.15550357135922   -1.03666147977193    2.21529784376180
O           1.70101662293729    1.65630432042652   -0.50018987923463
H           0.92897962135489    1.60464272638062    0.10769160110467
O          -2.18358763506083   -0.16083951321721   -1.97832933463615
H          -2.95751706190506   -0.20277843136443   -2.54164794949348
O          -1.88868072147285   -2.09052605087527   -0.03910168183629
H          -1.63829218984872   -1.45891633794588    1.45369623916832
H          -2.11209580915029   -1.44751506030762   -0.74018764215467
H          -0.92504565406499   -2.18322307093234   -0.08570700538173
O           0.65335941628422   -0.27301419430252   -1.96667279848413
H          -0.28055692739528   -0.18450513027317   -2.20243024325524
H           1.41349039922084    1.09710249473088   -1.26288955052005
H           0.64690642070458   -0.74228483294241   -1.10912637640646
O          -2.42428739643955    1.79291979902774   -0.21431900634834
H          -1.69981721547059    1.46141362958395    0.36262631194067
H          -2.18516987992540    2.69466167435175   -0.43616363346576
H          -2.32221760178124    0.60044440590556   -1.36279276687740
N           3.02962782638689   -0.03647635015431    0.91031816757094
H           2.34268289452361   -0.11256653344867    1.74117285317703
H           2.59435707970384    0.74827439930789    0.26697308345860
H           3.97908930855420    0.16743965531752    1.20605241040590
H           2.96858840510819   -0.92282237483135    0.41239379603265
