    26
        -50.46438033  Gyration_radius:  2.4149255023 Dipole_moment: 4.125
 S          -0.45802540012996    0.05265043757446    1.56878671886410
O          -1.25777426331143    0.63462145718862    0.48644499624990
O          -1.20083716314411   -1.19374031800309    2.10932624464666
O           0.84423541421226   -0.38463572846376    1.06608150376244
O          -0.30719817266289    1.01370833844004    2.65170171021223
O          -0.17053568957275   -2.08667805568429   -2.07972251439540
H          -0.22314739910302   -2.83301244374511   -2.67827095164555
O           1.76126293571118    1.63325352521683   -0.34434637975724
H           1.64153028406579    0.83982411876081    0.22513200934199
O          -0.14259828138151    0.74965902045820   -1.94596701934266
H          -0.65341753947083    0.73088761892360   -1.11267316070020
H           1.22692106568851    1.40755283564893   -1.14473909635013
H          -0.08872683315814   -0.17664376050662   -2.21912753596209
O          -2.17698994859954   -1.77469526960025   -0.22302208944091
H          -1.51186286023384   -2.00097049776416   -0.90220684005471
H          -1.60833264027205   -1.62112998659328    1.30765208043335
H          -2.21941579205233   -0.80646729998506   -0.23053021341864
O           1.67925782589122   -2.50228519498248   -0.23776106373126
H           0.55145482249172   -2.29046864016788   -1.43569059265582
H           2.60154124471394   -2.30056101284222   -0.40592003522930
H           1.35582389992352   -1.78667901252803    0.35462996709074
N           0.06831164828269    2.98598376418573    1.04284989966410
H           0.86154110404130    2.53866324541328    0.41845186268915
H          -0.79425345234442    2.99149447844605    0.50133979542215
H          -0.08250305872617    2.26926832868173    1.83753703226771
H           0.30373824913960    3.91040003196897    1.39004367204860
