    26
        -50.46438033  Gyration_radius:  2.41489894657 Dipole_moment: 4.124
 S           0.61413978008123    1.51126533167725   -0.11344606066584
O           1.78488958064379    2.18790626761125    0.42560656140238
O          -0.27219343748745    1.09238104101380    0.97683078089217
O          -0.15930187644265    2.50048088934473   -1.01934945096098
O           0.99923062823399    0.36149063537286   -0.93169107625326
O          -2.28070493687933   -1.35106540142707   -1.29658293346344
H          -3.00756169714623   -1.72497492421397   -1.79648478349581
O           1.75310941510346   -1.48858191716217    0.77447636844270
H           1.62753087563257   -0.89590870259132   -0.00084961990351
O          -0.85921733960249   -1.51472584806474    1.15589641995698
H           0.82949515353495   -1.77471445200992    0.97978164847977
H          -0.73520168448260   -0.54510298496748    1.16673137620438
H          -1.41240371708587   -1.68050150779998    0.37997194005399
O          -0.17524288096875   -0.98537069698198   -2.85222145529540
H           0.44411535317551   -1.69680099828898   -3.02490813865774
H          -1.52114133236620   -1.26375799853761   -1.92351447460670
H           0.28075340721937   -0.38553495823814   -2.21986961603168
O          -2.42362800104307    1.30643618517287   -0.59744718589367
H          -1.09241307711914    2.15416007884061   -1.04458891377699
H          -2.47032643192788    0.38625592428319   -0.92290922301082
H          -2.00376135727572    1.24019396164201    0.27353232255418
N           2.03853853937157    0.51476415299679    2.36359899244105
H           2.82773575077045    0.56310674547497    3.00025239573841
H           2.00664775382976   -0.42037038547994    1.77733945218607
H           1.14987642672754    0.61186451386444    2.85156362550466
H           2.05703511550016    1.29710506847825    1.61828104815530
