    26
        -50.46438024  Gyration_radius:  2.41489734434 Dipole_moment: 4.125
 S           0.20577339096726    1.51710247212977    0.57469869130712
O           1.33487893570488    2.27371042325976    1.09588024636906
O           0.45575154027955    1.07395221481170   -0.79689587679829
O          -0.07526288708988    0.36927469193766    1.44254740738868
O          -1.04196882098405    2.43387948435467    0.55718791941543
O          -2.28973826668079   -1.39313811346514   -1.23339755584462
H          -3.06589414615560   -1.75191793440800   -1.66580620802495
O           2.17203578061146   -0.90397984121932   -0.58942595270385
H           1.63529649361414   -0.12780759611740   -0.86838531410435
O          -2.66920144875120    0.42746823463261    0.79439603861601
H          -1.82016016333776    1.81286970518927    0.57212927573591
H          -2.65672733518949   -0.20237041300501    0.04737466547598
H          -1.93542428930345    0.15097337165030    1.36406685132511
O          -0.01455418766773   -2.06500990928840    0.32703350399211
H          -0.09138019526978   -1.22867622770968    0.82736589220642
H          -0.78407291621034   -2.06943365397462   -0.25896865461544
H           1.48134574207405   -1.57187940219944   -0.35685339803171
O          -1.08661008463020    0.36598434263901   -2.79724899897304
H          -0.54764389395939    0.75324807782885   -2.07120056423984
H          -0.45758333616059    0.08855883603643   -3.46577150521720
H          -1.87254855164884   -0.76672254415787   -1.87468370309585
N           2.66101146071010    0.15446200681627    1.70411166514979
H           3.61154292072788    0.21194504793319    2.05587640190014
H           2.22734844989373    1.12651340553121    1.51730590478261
H           2.58489743385195   -0.36950326773167    0.73502793980793
H           2.03888836458637   -0.30950341147122    2.36363533818898
