    26
        -50.45526232  Gyration_radius:  2.41579162215 Dipole_moment: 6.814
 S          -1.06484414067796    1.26080163207522    0.96770827572444
O          -0.36634315474041    2.00516973764788    2.00922722176670
O          -2.55286786799690    1.72497286119626    0.95383244810910
O          -0.49060606753958    1.60744413468794   -0.35772823208750
O          -1.02721998137144   -0.16434423967958    1.18142693118632
O          -1.18098904425571   -2.22896264123626   -1.23798729539972
H          -1.60112395331376   -3.05437077634567   -1.48238217612919
O           2.50865439928421   -0.65982710354073    0.20961062855766
H           3.33653911873274   -0.95480218259777   -0.17287685476412
O          -2.70313250770973    0.17669379572541   -1.19025267481530
H          -2.31454740688019   -0.70886431219086   -1.08283837057798
H          -2.93604100089835    1.16514645956931    0.24459090450793
H          -1.95903255675548    0.75456135442308   -1.39819416910341
O           0.76028029307655   -0.34246050623913   -1.66852738259291
H           1.84724787448464   -0.61840513161285   -0.54910331182601
H           0.12894186208427   -1.07952452666981   -1.71746469009174
H           0.25155665689955    0.38816259022845   -1.25861086554545
O           0.27777889734721   -2.44162267561190    0.99579202604658
H          -0.24769911550737   -1.67280013858806    1.28848070740121
H          -0.70525418485635   -2.39404645921344   -0.38728051909395
H           1.16850525488974   -2.09020799648569    0.88344370458875
N           1.83244355138020    1.87915705517575    0.75969545488711
H           1.16150646688875    1.97569934695561   -0.03827913928131
H           2.23967557418714    0.91130414043889    0.70899622653857
H           2.53852277092116    2.60694870283385    0.79034945632743
H           1.09804831232794    1.95417688905161    1.54837170566687
