    26
        -50.45450921  Gyration_radius:  2.45186830807 Dipole_moment: 5.291
 S          -0.31416629857314    1.56454198195258    1.34735391369397
O          -0.31831723131930    1.31880737033937   -0.08342077099910
O           0.28498473752178    0.34662675052745    2.07030871251724
O           0.38991503785348    2.72054939027171    1.77021555895049
O          -1.78452909471486    1.60315667156434    1.81740141611467
O          -1.99027541084974   -1.64327344499236   -1.00388645173961
H          -2.42264254852888   -2.30288933931904   -1.54741264711116
O           2.10989325569681   -1.37386480184272   -0.70534622560860
H           2.90372893227472   -1.90592280114510   -0.63867417034497
O          -3.02250873113810    0.76676067667442   -0.28050119465538
H          -2.79281076295336   -0.17087447138963   -0.43983047371768
H          -2.36766772564858    1.25815609922788    1.07431013303152
H          -2.44678768176317    1.27080845724483   -0.86525381328731
O          -0.03294999619123   -1.86284510850774    0.89097144046202
H           0.09346420121606   -0.56021019476229    1.62395314108428
H          -0.82094936551765   -1.85997089695972    0.31744308865779
H           0.74396181054611   -1.81435009719663    0.29553222365791
O          -0.03111049517601   -0.37712195721948   -2.16369870493043
H          -1.28884986765638   -1.20829861516143   -1.56842341534372
H           0.79078927249121   -0.82869048141402   -1.91994861913301
H          -0.08922535385405    0.36968284600960   -1.54232197024738
N           2.55319147304563    1.03762625697678    0.34377514480687
H           2.33369504973120   -0.47394576063966   -0.32868522543845
H           3.31988862831331    1.65937547421904    0.11491989911655
H           1.69188405575307    1.49831587959639    0.06712239565408
H           2.50739408965306    0.96785012568603    1.35409660504597
