    26
        -50.45526237  Gyration_radius:  2.41579382079 Dipole_moment: 6.810
 S          -0.37673927064730    1.75952473828445    0.64957251942195
O           0.63646616747895    2.33673350535412    1.52544063307283
O          -1.52281528296211    2.80220240444356    0.47961788137028
O           0.13983650662478    1.42382301235397   -0.65373175529693
O          -0.97122192214839    0.56433783460534    1.30125277051272
O          -1.12063034575459   -0.91358355233620   -2.40924721564743
H          -1.37710767552009   -1.10764663624434   -3.31152447461504
O           2.03027308286343   -1.58289707407504    0.38273360251177
H           2.40960130096868   -2.45838464481492    0.47413250544072
O          -2.71804216836062    0.83055615718391   -0.82400017542604
H          -2.13639351253080    2.33574974048815   -0.12807979933833
H          -2.16242085573081    0.38350354829928   -1.48591250962652
H          -2.48879728847386    0.41776710032069    0.01732877821960
O          -0.53468704124939   -1.78237015119557    0.12351058713261
H          -0.78110047511487   -0.93764834566148    0.55517769006198
H          -0.82452349333837   -1.67701217423341   -0.79800211704567
H           1.04609635404510   -1.71910382676455    0.21674708223911
O           1.46281298172396   -0.24628140425637   -2.19791866146915
H           1.91416125380879   -0.75184985203863   -1.51218546659223
H          -0.17147191102358   -0.63865299940553   -2.43758419168209
H           1.11510608150591    0.53593922917037   -1.72883550008292
N           1.32735625634037    0.05846655834849    2.38761825708709
H           1.80700284519492   -0.54203164298922    1.67046693742158
H           1.34178526040717    1.09975077648057    2.09978760026285
H           0.29645032445227   -0.08333769859995    2.27178530301497
H           1.65900280743835   -0.10755458272693    3.33184971905887
