    26
        -50.46278502  Gyration_radius:  2.54865025495 Dipole_moment: 6.695
 S          -0.73621481536567    0.82404422222020   -0.56100600618341
O          -0.61085887973305    0.17933165502937    0.74916025224561
O          -1.20996903702285   -0.09498447019770   -1.57563084089483
O          -1.76266649195077    1.97733675087857   -0.41082646653012
O           0.53607327667217    1.46199828535469   -0.91614494145767
O           2.32653182798297   -2.18658952268539   -0.24491511618438
H           2.05552641691629   -3.10003296165489   -0.34702637714051
H           1.94775241224755   -1.70752270113500   -1.02078877956058
O           1.21588861504299   -0.85888121985835   -2.26798894420243
H           0.25452766448857   -0.76649414385342   -2.10968834249958
H           1.52015625532098    0.05265503418607   -2.30141044630655
O          -2.98769340669842   -0.75798470185851    1.45660441955501
H          -3.16697788590692   -0.36857279739030    2.31402358042173
H          -2.07171186984232   -0.49435994644255    1.22280431061856
O           1.56087295195907   -0.78840765177637    1.87158456415563
H           2.14147314819380    0.45316317698299    1.39090255151756
H           0.64555765851234   -0.56216288228432    1.59366169420268
H           1.87761908434459   -1.43035123254305    1.19171607846042
O          -3.74790758482502    0.41306793602789   -0.84390623900673
H          -3.12280337409130   -0.04884844766026   -1.42330413854614
H          -3.73321701237203   -0.09271162917040   -0.00519514022035
H          -2.64634230926183    1.52890604619229   -0.56388752043890
N           2.40329261317177    1.38959265114285    0.84649021685282
H           3.30440356371450    1.30259644951642    0.38771607168671
H           2.39034389932884    2.19462511620165    1.46328499241471
H           1.61634326917689    1.48058698477782    0.10377057703875
