    26
        -50.45450919  Gyration_radius:  2.45160567964 Dipole_moment: 5.286
 S          -0.09966159324134    2.05182637798756    0.37360612310262
O          -1.32259901727294    2.68120500391287   -0.32838310011561
O          -0.53097559825098    0.79699377816897    0.96260110053848
O           0.88861826711806    1.76341326956716   -0.76909408648435
O           0.51040594926235    2.97134480244464    1.26417781117337
O          -1.92474841945018   -1.45360406058921   -1.36147494363852
H          -2.39986264230563   -2.20666264402904   -1.71447828530183
O           1.95408594892397   -1.73577230420895   -0.00269929015998
H           2.79984548519508   -2.14114330403454   -0.19776666297385
O          -3.02995966829887    0.75580688450077   -0.22414318710873
H          -2.05445239544208    1.99311800223544   -0.37513044634165
H          -2.72043964670928    0.01855785249979   -0.78796175404593
H          -2.76373894401509    0.51881724736539    0.67047351706282
O          -0.67261778080423   -1.89728795940061    0.87934079427903
H           0.24400678833657   -2.12185380727585    0.65967922417292
H          -1.52211660282895   -1.73917070816308   -0.49177345888521
H          -0.64253125911146   -0.94962574610995    1.09904408715071
O           0.55006493682300   -0.44811429696768   -1.93905581229794
H           0.70496270272808    0.89557347988616   -1.28974932637150
H           1.07383781556410   -1.00720542238626   -1.32776154341819
H          -0.37166838877802   -0.75854408072940   -1.87552924751037
N           2.32843524946581    0.47742760137728    1.43760044870348
H           2.14360038315837   -0.93080373306700    0.56124620217389
H           2.62328998932564    1.22368903002417    0.81803764151537
H           1.36261448120075    0.68716188255490    1.66965461592845
H           2.87160394931269    0.55485287460805    2.28953957874191
