    26
        -50.45526233  Gyration_radius:  2.41580542517 Dipole_moment: 6.813
 S          -0.52512869929514    1.83579973005077   -0.11612556396961
O          -1.12621212146591    0.82747375101658    0.72065287055083
O           0.29937689035010    2.77397983586786    0.63674890802192
O           0.29111036724589    1.20913690264225   -1.18739012937384
O          -1.65861879979098    2.64131997126774   -0.82034323911678
O          -1.87214542934057   -2.05823099663963   -0.39573869241783
H          -2.57331676294623   -2.70978750839731   -0.35924633120125
O           1.94202108169126   -1.16137199835551    1.28663324648227
H           2.60167242968119   -1.85170358078254    1.37044027554266
O          -2.20978646831584    0.30727233639950   -1.94418724415212
H          -2.15950747639187    1.93239660333687   -1.27857354911313
H          -1.27149821695940    0.41813266791044   -2.13961269667795
H          -2.25352798832808   -0.44258079183666   -1.32572813256563
O          -0.91164466880602   -1.44661960225093    2.02680946394076
H          -1.08635034321423   -0.52730633638416    1.74901929288258
H          -1.61439941870741   -1.86677646222722    0.53919086707806
H           0.05005762781250   -1.50400807310813    2.06276383069694
O           0.72566994062056   -1.40878572081608   -0.98158260796250
H           0.53622244852899   -0.46005562366325   -1.13842458785966
H           1.45357964485993   -1.34277801086221    0.42449127245836
H          -0.15053196651138   -1.81913559791879   -0.89136894547325
N           2.36012506410489    1.32688918625426    0.36995250326606
H           1.64263507622065    2.03848454781950    0.75198349634196
H           1.89303088589872    1.17001693907431   -0.55389194083333
H           3.30106681457276    1.69845370423312    0.29409946355755
H           2.31610008849363    0.41978412736678    0.89942817989844
