    26
        -50.45526235  Gyration_radius:  2.41590651327 Dipole_moment: 6.815
 S           0.64940753349135    1.57041901009726   -0.87908681564736
O           1.14435287752017    2.62390053878380   -0.00044362488020
O           1.50759254281566    0.36593832542891   -0.73940555865464
O          -0.73223607864107    1.24199529072446   -0.63107327523308
O           0.78990446266068    2.06031583781395   -2.35215216719353
O          -1.90315467791014   -1.65771210277478   -1.23676774115409
H          -2.67271688138184   -2.08219222226835   -1.61768250122095
O          -0.18348765130914   -0.61308037114152    2.52287505879059
H          -0.17042885512176   -1.25246250203719    3.23684564905547
O          -2.52664277540843   -0.04115639046720    0.80319573790264
H          -2.23453317819613   -1.05444403857141   -0.52719126132807
H          -1.99015243081737   -0.21678147914888    1.58473197397587
H          -2.01081900106953    0.61905278054849    0.30223422549532
O           0.36555158892564   -1.80456749236497    0.29474714391144
H           0.81143186339182   -1.05568394171007   -0.15356366877394
H          -0.03354850563644   -1.13572700289061    1.67487288194085
H          -0.42630066634046   -1.97210131445954   -0.24297708130615
O           0.01110683583112   -0.40423065341295   -2.93102143877492
H           0.42240524656681    1.30265927053863   -2.85639493802490
H           0.75963747713171   -0.55246714237587   -2.34061728189547
H          -0.76746417755874   -0.71373489184685   -2.43633939635306
N           1.86033305894554    0.95150725690837    1.76099019547576
H           1.53301052110299    1.85794956976873    1.27297783165346
H           2.66432457259995    1.08236450563318    2.36564387397889
H           1.05984506897683    0.46514653635150    2.23839309227710
H           2.07258123943032    0.41509263286963    0.88720907598142
