    26
        -50.45526234  Gyration_radius:  2.41591672228 Dipole_moment: 6.815
 S          -0.46754477921414    1.71987298050779    0.69592779909489
O           0.61901880339302    2.69080823799585    0.75440453388090
O          -0.71787014471609    1.24458500475615   -0.64186887928886
O          -0.16703190204388    0.58579903258269    1.60711695636002
O          -1.76071885264586    2.40453975750158    1.23310118048625
O          -1.94097666885855   -1.64318115636904   -1.19670150913702
H          -2.59049159144287   -2.08038629429997   -1.74853266646174
O           2.25491860788958   -0.94433196200919   -0.89407499382941
H           2.87073815836412   -1.66640866042888   -1.02867986727787
O          -2.78975090258695   -0.02356980996597    0.98586832161355
H          -2.00319415575112   -0.18132000877091    1.52190013872366
H          -2.42569950256520    1.68866910462371    1.13977763346200
H          -2.60863599273097   -0.45933568927228    0.13498293653352
O           0.22867072396876   -1.78914170648759    0.47209010241047
H           1.45799255796219   -1.33936084241772   -0.42117706857030
H           0.02314704938204   -0.95345455853910    0.94108197556211
H          -0.55203015228768   -1.95405328159158   -0.08249523447912
O          -0.07645516474785   -0.36045584817969   -2.62582261849328
H          -0.31706258643008    0.40014293669178   -2.06327568837880
H           0.81777955141354   -0.58775087921852   -2.34626964085400
H          -1.32619374131756   -1.16626788547235   -1.80646741887693
N           2.35393481253791    0.87485041344441    1.07748883591162
H           2.49515876123484    0.26436382377722    0.23336148168306
H           1.87237403519854    1.80469771021152    0.81218483948562
H           1.55194073792787    0.47486875736765    1.61895903570848
H           3.19798232806680    0.99582080356320    1.62711983473216
