    26
        -50.45526234  Gyration_radius:  2.41582455547 Dipole_moment: 6.813
 S           0.13551440996512   -0.18059210985360    1.89965657541988
O           0.57763553567345    1.01131480219308    2.61434135461061
O          -0.12249896478987   -1.30685105208428    2.94593475925917
O          -1.07500139055861    0.03806963396477    1.14792151281921
O           1.22582906674970   -0.65694420353630    1.01026561009600
O          -1.74672051042059   -1.63153296416991   -1.47808989944990
H          -2.47779320060337   -2.07878622052426   -1.90591058798707
O           0.45258222251955    2.01984730960053   -1.57793226656447
H           0.73498722540383    2.38485753305270   -2.41801355112341
O          -0.49803766180035   -2.80639304397735    0.79515408667504
H          -1.08447560409889   -2.41689113104749    0.12353379332520
H           0.36826402930662   -2.41502382975937    0.63034128687064
H          -0.42617337986967   -2.04807346351094    2.37872630352240
O           0.76712551962502   -0.54640682267430   -1.60927565829216
H           0.52941588912453    1.01931788653988   -1.66633211174499
H           0.95676450260730   -0.67179060573331   -0.65591008989873
H          -0.06767862304186   -1.02191831673008   -1.75494180166807
O          -2.25422332649912    0.95610280048844   -1.01773326488369
H          -1.54737441529843    1.52864382470633   -1.33717350493782
H          -2.04119987634058   -0.70263273276349   -1.31198293890200
H          -1.99063110896597    0.73772740094027   -0.10356176194583
N           1.94994923104794    1.80431759547059    0.63957880887394
H           2.08514094601881    0.76870528328545    0.56526224545890
H           1.37437545950865    2.10360076938745   -0.18766830374709
H           1.35788067408842    1.78709735175589    1.54308131256142
H           2.81634334064833    2.32423430497607    0.73072806165363
