    26
        -50.46278493  Gyration_radius:  2.54884928948 Dipole_moment: 6.702
 S          -0.73885770570387   -0.61740331706149    0.78255662725059
O           0.33699856428113   -1.17813741320676    1.57406412203729
O          -1.04794059965397   -1.41507879352019   -0.40903045355687
O          -2.03521426752984   -0.60645957937372    1.63454939188338
O          -0.46648624910570    0.76726764526417    0.38731517836659
O           1.63848912636954   -2.09223607929238   -0.52801176522876
H           0.83702797405904   -2.47912897927311   -0.89180814154339
H           1.35147945700786   -1.77037156138763    0.35055628738948
O           2.49842685949267   -0.04939979173928   -2.00386429720407
H           3.35078918366369    0.19799907791133   -1.64255786958649
H           2.20389092647080   -0.83286522174730   -1.48011226052281
O          -0.13893017473070    2.22018988957310    2.58076957917328
H          -0.77044366860672    2.93732338169007    2.50407565902416
H          -0.18253514158942    1.72576750632222    1.73417147353735
O           0.46269942890740    1.64380221275352   -1.91019868056560
H           0.18687131450691    1.51102667893341   -0.97603993219902
H           1.31028349207175    1.14445652959603   -1.99379905591231
H          -0.48954066499311    0.69031555823036   -2.45220312028852
O          -0.74273444469194   -0.10584943959444    3.79213140008861
H          -0.04828952884264   -0.63893949968846    3.37573532343018
H          -0.48913850733948    0.82263849085648    3.61030671916453
H          -1.70650160137423   -0.42165960809099    2.56360128312572
N          -1.18343323925649   -0.15983679914961   -2.64597769634492
H          -2.12104354444077    0.16518674788870   -2.85555203638172
H          -1.18325439869064   -0.70740629179542   -1.70820233350649
H          -0.83261261025784   -0.75120134407532   -3.39247538161328
