    26
        -50.45526238  Gyration_radius:  2.41583550812 Dipole_moment: 6.812
 S          -0.16406531139315    1.08156066454359    1.56945313637513
O           1.09077610915353    1.43534360442418    2.22293066601454
O          -1.33231988769059    1.70905551691049    2.38860623953972
O          -0.20649448191910    1.69271792742379    0.21616696971610
O          -0.36809085657137   -0.34334886252097    1.49046749801767
O          -2.10800495641198   -1.66546351474441   -0.82470808796731
H          -2.77423753967343   -2.34071022899576   -0.95776097629815
O           2.08501344889960   -0.99012782641289   -1.20315189235521
H           2.54491798247874   -1.27157388488318   -1.99561693985644
O          -2.81941773501640    0.80942625587859    0.38996323265036
H          -2.64602350741024   -0.11360253428935    0.13566329297225
H          -2.12005344786010    1.40626147009905    1.88745952804589
H          -2.14481705005663    1.32709337124928   -0.06585716036298
O           0.12491824108853   -2.63262890889728    0.29056079922804
H           0.91644755986882   -2.37485446981221   -0.19577445762935
H          -0.00723847283698   -1.90973822133049    0.93306578352850
H          -1.34583643266112   -2.10464898371788   -0.37371000444913
O          -0.20527652617362    0.01870151198600   -1.85327748268736
H          -0.27742883910533    0.67191897156798   -1.12616484085907
H           1.17774955385311   -0.67129141560693   -1.50306972690075
H          -0.94067648951169   -0.59749424100998   -1.69929148523456
N           2.35989031400799    1.37713057335493    0.03254802346183
H           1.43976083380031    1.76100079466877   -0.28727673416485
H           2.45625208982948    0.41487061369019   -0.37965292625943
H           3.14877451253728    1.98012316361965   -0.17538467857115
H           2.11548087877462    1.33027863280279    1.08381224404326
