    26
        -50.45489336  Gyration_radius:  2.43256616455 Dipole_moment: 9.417
 S          -0.23772900899092    1.28410686469465    1.75050806475863
O           0.81947735862171    1.75311926161051    0.86416613070167
O          -1.50426041888953    1.26291424967882    0.96444690080492
O           0.07268087779116   -0.25023530862344    2.03299415184890
O          -0.34944502774748    1.91699229060974    3.01506605291444
O          -1.77147190518837   -1.53984459078676   -1.41518120213772
H          -2.40081992451918   -2.07945330329832   -1.89453923346099
O           2.03900911867398    0.29025569067171   -1.62223051792194
H           2.60228485862299    0.74091950051802   -2.25245822452655
O          -2.55303848405234   -1.12650213521402    1.03676559851201
H          -2.01138406355682   -1.56068821414694    1.70149525472612
H          -2.30763133880717   -0.17258424655225    1.09905251226795
H          -2.14743156776876   -1.42250353680514   -0.49419847272974
O           0.68249382568676   -1.66009250903539   -0.14088299163665
H           0.32985971292512   -0.72780015689705    1.21011800019266
H          -0.12837266646811   -1.84030542522572   -0.64029245972968
H           1.28526892792203   -1.21830930418310   -0.75221872525081
O           3.04381863524888    0.46566040185616    0.79195046262672
H           2.49792496272135    0.38226103369565   -0.74083031194000
H           2.28430682397731    1.07429170216337    0.97392933201785
H           2.90527931188661   -0.29814105543238    1.35636114814186
N          -0.62403602705295    0.95063098965854   -1.39675936940776
H          -1.06840863535117    0.05315579020224   -1.66194541781514
H          -0.89590834989991    1.69868437613724   -2.02557697727935
H          -0.97786043749087    1.17660135184855   -0.37801486423531
H           0.41539346170384    0.84686625284724   -1.38172484143908
