    26
        -50.45450938  Gyration_radius:  2.45184465182 Dipole_moment: 5.291
 S          -1.74024534848789    0.10121142694665    1.14991937014875
O          -2.07175514984731    0.05540155259717    2.52792504640378
O          -2.93366609349511    0.59710025760915    0.30470415268912
O          -0.59069829627456    0.91841860900414    0.80628191871502
O          -1.50247906594652   -1.33903670517441    0.66543830642347
O           0.21366870324997    0.86366439680797   -2.62228330719691
H           0.61035643283567    1.10659874497234   -3.45958785669140
O           2.20757432161717   -1.38637565308519    0.19262953790331
H           2.80055171925286   -2.13259602467339    0.28918811961303
O           1.72681239043722    1.24742434429919   -0.53718283720131
H           0.96352890521156    1.26134109319012    0.06651523216778
H           2.17049678988274    0.40803767927790   -0.34328509740877
H           0.87326408346534    1.08996848823666   -1.90540536337528
O          -0.01395440894379   -1.55100174071007   -1.36290832020950
H          -0.95417089084057   -1.41828088931974   -0.20115809222036
H          -0.03263403133865   -0.74842949303707   -1.91566692221608
H           0.84999724850366   -1.54907191379839   -0.90036352639654
O          -1.77423054157556    2.20498666695851   -1.33979472226361
H          -1.19684448993875    2.55329510956829   -0.65235857409659
H          -1.18760189261510    1.69381435664435   -1.93302593732086
H          -2.58655561003932    1.21816456381408   -0.40589098716564
N           0.81383258252600   -1.04707319219065    2.44114167758176
H           0.36826593591248   -0.16065777073159    2.22569227995291
H           1.19355253082779   -0.97880174577310    3.37815899466390
H           0.06173871085996   -1.72646218036365    2.46474398947358
H           1.73119546477384   -1.28163998106900    1.06657290802968
