    26
        -50.45462542  Gyration_radius:  2.43332086258 Dipole_moment: 7.032
 S           0.80052646754902   -0.29065611711552   -1.75537377081757
O           1.32065485668166    0.74716197261997   -2.60172628436266
O           0.99328971160556   -0.04110391845167   -0.33777897871983
O          -0.75780550020862   -0.40839567461836   -1.96919159998041
O           1.28866309914172   -1.64725837713401   -2.09718518842014
O          -0.72286556957082   -1.51735020230328    1.89195412564056
H          -0.86572981637195   -1.95010059374111    2.73465541748300
O          -0.56378089645683    2.56641160692080    0.90472406682995
H          -1.03694929724524    3.39839674567996    0.85585931948973
O           0.85179864472036    0.53045103396383    2.20926298969901
H          -0.08929938974517   -0.75953109872647    2.07243771821740
H           1.16752276802290    0.35966867904307    1.30103934022139
H           0.32942362437535    1.33944674506677    2.11362931308196
O           1.32310612255271    2.79630332566481   -0.93276301549605
H           1.27530257856505    2.09990472846593   -1.62551624405417
H           0.14154239059639    2.61639703295304    0.20743198715278
H           2.17744666278159    2.66854752435812   -0.51526470324195
O          -1.95489072919605    0.36439893301444    0.17939085221506
H          -1.49167470112462    1.18962008646111    0.43793932137736
H          -1.24553902420746   -0.02981727518585   -1.17644555721086
H          -1.66695133545683   -0.30190057348910    0.82066382036398
N          -0.26806248532994   -2.77623257367115   -0.51465943347465
H          -0.12388557799631   -3.77192612274327   -0.38243514389416
H          -1.15128614787045   -2.59496145508681   -0.98652655045763
H          -0.27326619047262   -2.27638778957934    0.39842523231546
H           0.54270972466073   -2.31108664236721   -1.23254706395824
