    26
        -50.45450925  Gyration_radius:  2.45179248727 Dipole_moment: 5.294
 S           0.81877643849720    1.45367620291406   -1.25661721770674
O           0.63196292013725    1.06832042086419   -2.74012518309788
O           1.21999459464881    0.25628180995972   -0.54062673441719
O           1.68320717105078    2.56956037139548   -1.12096920659159
O          -0.58562940790966    1.87605148378392   -0.79324832616826
O          -1.05975653695053   -2.41071211012786   -0.85446320085386
H          -1.42161871873355   -3.29685303501535   -0.81850595844521
O          -0.91156363425709    0.04275059657178    2.44940108160086
H          -1.40905412639626    0.30625451705276    3.22453888398983
O           0.78377712737340   -1.50049601330324   -2.63434602016190
H           1.49943766638426   -1.47034162000554   -1.99072775169714
H           0.01211362839372   -1.84953903350218   -2.14428897700781
H           0.64122406555270    0.06549414007307   -2.81437687823443
O           0.60218361698078   -1.82470153205050    1.06358215921841
H           1.00379583347864   -1.10072294156021    0.55193271528288
H           0.09592429204100   -1.37582879633310    1.75729587956190
H          -0.41615786179951   -2.32272699242554   -0.09401534085506
O          -2.06548471474014   -0.01382876254104   -0.00982279577350
H          -1.75713605598653   -0.05303417068104    0.91957045983818
H          -1.21007018936181    1.09848889224211   -0.54187214757778
H          -1.81943788855619   -0.86394534484746   -0.41810784508901
N           0.80898301587844    1.96899895538374    1.78437331739929
H           1.47785690195914    2.41568451056368    2.40069042507711
H          -0.26315730180834    0.78079978165780    2.25810943368901
H           0.30626054279124    2.70151858926027    1.29612262885013
H           1.33356862130266    1.47885006066447    1.06649658916188
