    26
        -50.45450942  Gyration_radius:  2.45187946826 Dipole_moment: 5.291
 S           1.83519407388892   -0.48568208566222    0.87032018988553
O           0.42225960733480   -0.46830286249396    1.20279876033879
O           2.70172075840112    0.08223425610639    1.83854306718621
O           2.22331331398600   -1.94840580144594    0.56320478622970
O           2.05294226862657    0.25372610509410   -0.46061132943980
O          -1.64406966448705   -1.79114335607771   -1.32426054660670
H          -2.41831607127026   -2.14656270053324   -1.76209416037041
O          -1.09705584926508    2.24978848283837   -0.75275253861942
H          -1.21516574299619    3.10128469021282   -1.17559854052411
O          -2.13996905084377    0.00312852323191    0.49751307734355
H          -1.28036586096323   -0.13867772433111    0.93134713720516
H          -2.05567844165921    0.87226754611765    0.07728755785457
H          -1.96605746670211   -1.14691315298798   -0.63035897511794
O          -0.08263820023873   -3.09323140401620    0.48189672833853
H          -0.58497743283778   -2.75505798407029   -0.28663418108261
H           1.38155349463297   -2.49118210904075    0.47435567654883
H          -0.40370771247177   -2.58790077118504    1.23605507889398
O           0.09625274376489    0.18509978379103   -2.05498880405498
H          -0.40120827199917    0.94896404764398   -1.69528868697694
H           1.28245614098168    0.16501865541451   -1.13606821683515
H          -0.46335013317653   -0.60013562681625   -1.91263731799215
N           0.82387089060082    2.41874063786363    1.08952099890226
H          -0.39115333597521    2.37073960522733   -0.05351616374579
H           0.88694204979071    3.10820630871106    1.82941983742979
H           0.71247799252119    1.50930343635601    1.52672529998306
H           1.72472990034542    2.38469352005312    0.62582125523441
