    26
        -50.45450936  Gyration_radius:  2.45183596571 Dipole_moment: 5.290
 S          -0.59609273829808    1.44389181596912    1.38589847499915
O           0.27099433311552    2.08216233122393    0.28759206085169
O          -0.59206125165054    0.00149175889745    1.22219571579789
O          -0.14133585508828    1.92112804955271    2.64141518145992
O          -2.02570014133010    1.94285755843283    1.08298969848212
O          -1.62715079367887   -1.06386249349178   -1.97188777804203
H          -1.92615332563708   -1.63761471623845   -2.67817925735699
O           2.32905723217369   -0.82397448716284   -0.85300991456331
H           3.21992834727961   -0.80873502179481   -1.20500453648729
O          -3.12418200682868   -0.17769360048538    0.11843297965900
H          -2.54517456786257    1.19099773089103    0.66338972247475
H          -2.70464501366944   -0.39794898657053   -0.73763919628806
H          -2.69035975044945   -0.74374832855003    0.76547844228025
O          -0.01657959269824   -2.18142762312245   -0.25679114885966
H           0.88897878249649   -1.97878541171701   -0.53588262196217
H          -0.21287058551338   -1.51555183748145    0.42539289384844
H          -1.05084642885516   -1.61411266441445   -1.36749443354694
O           0.38750650611054    0.78029388976651   -1.87284688323937
H          -0.40002529328344    0.22172617888016   -2.00611814705757
H           0.26011269962377    1.58726706634259   -0.61380285841545
H           1.11857120736230    0.17506304557262   -1.62877911714868
N           2.28607230357662    0.35714844196064    1.53794430915455
H           2.28779699942861    1.36224552143792    1.40561616940040
H           2.36952643758911   -0.39867995158722    0.05212455847662
H           2.89617763884625    0.15088089045650    2.32025430063472
H           1.33845485723413    0.12498085324320    1.81871136544387
