    26
        -50.45450913  Gyration_radius:  2.45165743933 Dipole_moment: 5.293
 S           0.24052408422476    2.00115174809583   -0.54683661628501
O          -0.59761297168373    3.07023161754567   -0.95353813474572
O           1.72709770458868    2.32445160717636   -0.81086354209306
O           0.14475848454373    1.87194994469520    0.98271709354910
O          -0.04204351106362    0.71372381615099   -1.15529937188774
O           2.02618936514493   -1.88740408086980    0.01465651579784
H           2.46045204955015   -2.73951372691798    0.06785890483077
O          -1.81593423267182   -1.28640297300223    1.36956821003689
H          -2.41858825565678   -1.51828456026454    2.07725970855445
O           0.70243824359146   -0.41416130720362    1.89813793084437
H           0.44069865495665    0.96159803382910    1.35876425291624
H          -0.18312152981377   -0.82139355647140    1.79640906116281
H           1.30230019760117   -0.90759352908843    1.30938028921355
O          -0.40277822066833   -1.95110613618455   -0.92382722523619
H           1.12444182514131   -2.03998965188152   -0.39006980838725
H          -1.00477723786772   -1.98838996432679   -0.16540862902677
H          -0.37934460905799   -1.00885649484895   -1.16648709808118
O           2.58419661466690    0.09143097102658   -1.76536608617807
H           2.55765463798986   -0.59032400573809   -1.06406895689320
H           1.77989937193347   -0.04155629699690   -2.27798209785327
H           2.17782910192105    1.49674014030296   -1.16180567188538
N          -2.56900371583921    1.02293015323210    0.26829580062394
H          -1.93610520906002    1.03999886005628   -0.52533825229169
H          -3.49529146124706    1.25013815977750   -0.07400420223664
H          -2.15485243285554   -0.43325667628114    0.97062246185160
H          -2.26902694836863    1.78388791815539    0.86722548367467
