    26
        -50.45450931  Gyration_radius:  2.45180165893 Dipole_moment: 5.290
 S          -1.68895637339406   -0.27200775255113    1.19840069737411
O          -1.34349047084774   -0.06946577493582   -0.19697972295920
O          -2.61600018429020   -1.31348832250944    1.45683868312504
O          -0.40932905007428   -0.55864197905666    2.00188510795502
O          -2.19521079193210    1.07708978012103    1.75337953753197
O           1.98678977304043   -1.55128907493015   -0.68832155702706
H           2.72209348156693   -2.16174061770413   -0.62154301567568
O           1.05692206662262    2.46024734786294   -0.70877140858593
H           1.59960329973546    3.11079702435706   -1.15570897334882
O           1.69249599500214    0.49208458690701    1.07800225096599
H           1.50275230657279    1.29263109563034    0.55548232301046
H           0.43168728804527   -0.07236851463783    1.66439045364253
H           1.92453677584303   -0.21012893976957    0.43501721283627
O           0.52105061980530    0.32933750339987   -2.10757208146525
H           0.89436697514842    1.71537144462077   -1.35599696535198
H           1.17428133991926   -0.34515998697749   -1.86802857673855
H          -0.25679141706136    0.11516028162138   -1.56321899231938
O          -1.59836690349919    2.68619702461574   -0.16712495001171
H          -0.62524060213566    2.75012894226321   -0.24643744121523
H          -1.86507804326732    2.04670330812103   -0.83588191640373
H          -1.97960062045828    1.79866162776484    1.08705516259332
N          -0.26212942927903   -2.76460879259197    0.07523799098022
H          -0.60954578342912   -3.65336001572360   -0.26573583600674
H          -0.93251128962110   -2.05055608710068   -0.19195041240628
H          -0.29055324739288   -2.79351077827106    1.08820683839339
H           1.16622427537584   -2.05808333052356   -0.42062438889765
