    26
        -50.46954184  Gyration_radius:  2.39860706472 Dipole_moment: 4.981
 S           0.15053120121944    0.16657198264069    1.57487769295258
O          -0.40875471741293    0.73237703697454    2.77136968406220
O          -0.79073833180978   -0.71040392259307    0.87469590370483
O           0.64105794056777    1.21553184562611    0.65628204615127
O           1.40613497581312   -0.68966140113944    1.92894691370103
O          -1.26703173871936   -0.44181908566931   -1.72128299752977
H          -0.39802437505932   -0.66824562858071   -2.08792468324661
H          -1.19575499059740   -0.68800952699197   -0.77460559144513
O           1.39169942141240   -1.23346614842645   -2.11412135199155
H           1.95628965324387   -0.60221412268662   -1.59919511493767
H           1.90856316913869   -1.50490613538262   -2.87372919897200
O           2.80361124695292    0.32775609278079   -0.52494388350568
H           3.26681416198761   -0.13535455270494    0.17709052046818
H           2.04750846209520    0.77513707546555   -0.08155341922487
O          -2.73244211504113    1.23718503307963    1.63061272696625
H          -3.03954925676366    0.33277517580580    1.52379413155417
H          -1.92334905318997    1.15378844282405    2.18699182960202
H          -2.15773665597289    1.75996080236004    0.19392189942109
O           0.94698430029465   -2.60597156154469    0.24008720335240
H           0.04018990209361   -2.30417960361273    0.40917104896446
H           1.15240726524887   -2.29125207070798   -0.65962623953074
H           1.36568660854426   -1.49563681182747    1.34288845568354
N          -1.48478317711324    1.92336605328325   -0.60548017725343
H          -1.53196052737473    1.10337536012615   -1.27306870725979
H          -0.53072212330683    1.82062540653607   -0.14139589763634
H          -1.61663122625859    2.82267025437772   -1.05380279396739
