    26
        -50.45450935  Gyration_radius:  2.45179821458 Dipole_moment: 5.292
 S           1.16589408532971    0.94625849690101   -1.45139550203150
O           2.54410539644890    1.03608587369835   -1.77282451331658
O           0.88222932351508    1.90609938908112   -0.28364826839346
O           0.28738329438338    1.47713115457102   -2.60498733813204
O           0.68468231405275   -0.37998341130782   -1.10949518523827
O          -2.72110225873476   -0.46339938264303   -0.21528192094925
H          -3.59324214527179   -0.80598674778643   -0.01658354932886
O           0.33060848358329   -0.47165547265838    2.54920748398009
H           0.51634522569990   -0.32986676841581    3.47828875681262
O          -1.59100324536423   -0.28338895324509   -2.68234588638670
H          -0.97260613238811   -1.00640537871222   -2.53362462521680
H          -2.12119246108346   -0.22604536820061   -1.86201993622268
H          -0.51025262369889    0.87293740774564   -2.70449550174592
O          -0.74707280358145   -2.00380180661971    0.50230332109595
H          -0.44872966888811   -1.70379188588655    1.37411141927609
H          -2.05876904667313   -1.15507572128390    0.07291309478495
H          -0.13288891227959   -1.57865545733904   -0.12161580839771
O          -1.13268778622593    1.31600274667067    1.11894276295753
H          -0.69591151857738    0.68387536120807    1.72721937861308
H           0.02183923139667    1.70441984024844    0.24247015908408
H          -1.79123026211482    0.80365669074818    0.61517066169698
N           2.54294141427975   -0.06367845791272    1.11665184343382
H           2.68040826014821    0.93452578666520    1.00516852289533
H           3.45136682018501   -0.48046950441750    1.28353820043162
H           1.19270778780801   -0.33655291492666    2.05899582866150
H           2.21617720804841   -0.39223553618799    0.21333661163071
