    26
        -50.45450915  Gyration_radius:  2.4516114496 Dipole_moment: 5.293
 S          -1.13004382455630    1.51113401963533    0.89355705592085
O          -0.88534768073820    2.78802786083163    1.45967690969715
O          -0.74750507378728    0.44417366780729    1.93316575314134
O          -2.63860688678636    1.28630069414967    0.65240721089353
O          -0.44129800215988    1.23381519949575   -0.35392461457558
O          -1.03421089795347   -2.00281261916166   -1.60745602347934
H          -1.06376112244349   -2.74419746552783   -2.21324599087093
O           2.37851519190885   -0.98084367060356    0.45967775014051
H           3.12747499417406   -1.35511784143401    0.92518546851167
O          -0.15542368808387   -1.81512856261864    0.97404738358045
H          -0.58318459160183   -1.96944821998774    0.11199176337149
H           0.79060839056333   -1.64054567254920    0.78700457373558
H          -0.57564135399521   -0.49331172948810    1.54653321167560
O           1.02127086474324   -0.42913704569690   -1.89691782505532
H          -0.22680549473025   -1.46123573737508   -1.84172451774987
H           0.57186113594898    0.30909431760087   -1.44940842636162
H           1.69714064188590   -0.71673030612813   -1.26485896325110
O          -2.63614000952809    0.19365615153738   -1.67967937870581
H          -1.94211807426175    0.78132436745902   -1.99639506601393
H          -2.21809027228614   -0.68902908915651   -1.62055986684991
H          -2.75648413017002    0.82581203707744   -0.23385728163002
N           1.92241574707812    1.49713143274175    1.33416088456481
H           1.22335532683252    1.78368401831596    0.65606328295895
H           2.26572085866009   -0.04624704196788    0.79977227547916
H           2.60414134007252    2.24350006493991    1.40475386515007
H           1.43215660122428    1.44613115010586    2.22003056572491
