    26
        -50.44586009  Gyration_radius:  2.58724124625 Dipole_moment: 4.991
 S          -0.73094313509021    1.26295296226420    0.78337840017897
O           0.33712682482976    1.21905269885220   -0.18605146825240
O          -1.46958862068652    2.63007413163989    0.60721265456231
O          -1.75335980351621    0.21927260247537    0.46384688680796
O          -0.28516195256603    1.13606216245811    2.14668457217805
O           1.64841889172910   -1.88806338993687    0.01829985789591
H           1.77780421665345   -2.71229430957546    0.49019373796665
O          -0.30407183811075   -0.86147802913122   -3.16416069243645
H          -0.05559026013422   -1.52546757621290   -3.80951792590667
O          -3.59877812772351    1.57742526466301    1.79673672773838
H          -2.26406318361211    2.52912724265292    1.16594162895421
H          -4.39626160414852    1.59742469580667    1.26252269731737
H          -3.05716630066947    0.84129908073824    1.45681039445233
O          -0.77558469807856   -1.64611138483726   -0.78486433197695
H           0.18480394500109   -1.73028443056966   -0.43923882651737
H          -1.23417395760871   -0.82332253415989   -0.23493266108653
H          -0.69667048912353   -1.33612212405361   -1.76121186850959
O           1.85304662489355    0.08902494504869   -2.05142366879468
H           2.13157946456966   -0.65229521484149   -1.50008846773192
H           0.53496307432929   -0.39191111325587   -2.89316509306486
H           1.37917335404435    0.68284407625753   -1.43716447674675
N           2.20539757564659   -0.00577726515089    1.69303917022797
H           1.86925698470765   -1.13410903709977    0.68910323406562
H           1.29249735570988    0.39213909630209    1.94011540033335
H           2.70701864014697   -0.19373570022835    2.55268468068383
H           2.70032703881816    0.72427311986322    1.19524944764171
