    26
        -50.45273929  Gyration_radius:  2.45701829397 Dipole_moment: 6.236
 S           0.08458298632123    1.95650932389635    0.69093444759437
O           0.64849325965373    1.60362311563345   -0.73780094974420
O           1.13461594910566    2.78013796842903    1.24048765663367
O          -1.22413841287244    2.53766121877077    0.55549898293538
O           0.02012712514422    0.65048479084553    1.40870447868535
O          -2.26487529576517   -1.56191937770723   -0.73349110314468
H          -3.05085578982680   -2.02842339440400   -1.02038517970933
O           2.01987789846433   -1.42489187677629   -0.76534052669112
H           2.50156440668441   -2.22859129845090   -0.96421640851295
O          -3.10820590494821    0.74865126999410    0.21306896693880
H          -2.38213209755863    1.37481002934913    0.44629561651018
H          -3.70490269134515    1.25975819442164   -0.33738606066499
H          -2.57819514179709   -0.71670274747200   -0.31916609462718
O          -0.01438275792670   -1.94521687081459    0.78903370422615
H          -0.11524022478780   -1.05358006101216    1.17515192274068
H          -0.83337875680491   -2.06857509954778    0.28302374583308
H           1.26566924683872   -1.69003031363209   -0.16321976983370
O          -0.26051531819977   -0.36649995346920   -2.16037655360215
H           0.13966096892366    0.94447685339181   -1.28272051204224
H           0.55913658606073   -0.83463894387993   -1.94819778253168
H          -0.98548698619788   -0.84751412826390   -1.72082720636471
N           2.49499516648434    0.56518275179462    1.07130046335902
H           2.58634450571580    0.00547049288735    0.20383571604415
H           2.41317959764786    1.59199106309630    0.90597226454203
H           1.45491747583859    0.41605023121384    1.40642698213920
H           3.19914421514539    0.33177677170961    1.76339320928311
