    26
        -50.44585978  Gyration_radius:  2.58705906979 Dipole_moment: 4.979
 S          -0.81143470895353    1.14439950645786    0.87921308674156
O           0.59257206341883    0.95784814818067    0.60286960747695
O          -1.47596261515816   -0.18256896849308    1.06273469675264
O          -0.92649318906310    1.85776524303144    2.26615191942262
O          -1.50187687844797    1.92440523733122   -0.11494021443313
O           1.88023140012677   -2.45793395592104    1.12952301548756
H           2.38028093851186   -3.23119163300610    0.86286723256798
O           0.73821437267695   -0.88958852832063   -2.22316847495800
H           0.32887888303295   -1.22958093413342   -3.02054001544166
O           2.72868379897934   -0.39216505448948   -0.21550014606135
H           2.34486198974375   -1.66364468139113    0.74110064915730
H           2.38363132160197   -0.57746900082384   -1.09732733391572
H           2.08399889578300    0.23207579651650    0.17081704735680
O          -3.41577543376333    0.95220121699116    2.46941976895659
H          -3.57518272447652    0.41127761328637    3.24644183360152
H          -1.88108819963101    1.80800694405743    2.46521089898791
H          -2.94705383003063    0.38503446549224    1.82961631325366
O          -0.28140712058619   -1.95848017815789   -0.12674370956561
H           0.52578738058791   -2.21140582584372    0.45625215992007
H          -0.82592787779169   -1.18528761381813    0.41626332361284
H           0.10568739548218   -1.51123766941967   -0.96312852079272
N           0.29576704705128    1.65230717244032   -2.21397815232428
H           0.55896084661705    0.12786298666220   -2.21846189278146
H           1.12437323179935    2.11527598297030   -1.86061309152797
H          -0.00428492004883    2.14155609251289   -3.04859527706794
H          -0.42544204746686    1.78053764788710   -1.49548471442457
