    26
        -50.45450937  Gyration_radius:  2.45182465804 Dipole_moment: 5.291
 S          -0.24958078490467    1.88110023898533    0.87227298370708
O          -0.58127028717145    1.17543461366513   -0.35222697250558
O           0.28137640072396    0.87687526143627    1.90914943531157
O           0.95853356551462    2.79426719110890    0.57064754145634
O          -1.30937547177946    2.61199872934295    1.46679312446525
O          -0.95573376090238   -2.37347602527756    0.53282033442238
H          -1.19802681778655   -3.16186446419241    1.02016643808439
O           2.09099022790874   -0.69987828263476   -1.67449150991280
H           2.61606615771234   -1.21002065651829   -2.29217262192596
O           1.43535754368253   -1.14923041538873    0.94035925325777
H           0.64009825599235   -1.70220708776063    0.79145374048172
H           1.81404333343488   -0.96830674295457    0.06068842038749
H           0.81224759927234    0.08894977905385    1.51529489832526
O          -0.48197090730490   -1.05813580724372   -1.86397609516389
H           1.13009827501928   -0.89623043941369   -1.87033916404150
H          -0.72886605903104   -1.73060435007493   -1.21137902966066
H          -0.67495741831167   -0.21237331931025   -1.42273277020376
O           1.65319426464326    1.98233853508246   -1.77289705160242
H           1.98883455238221    1.06536111648763   -1.71087472507528
H           0.73712010674825    1.89746233882469   -2.05739371566662
H           1.33836559727502    2.53792882237530   -0.32443550177384
N          -2.36422315837793   -0.29353301878722    1.42886065861499
H          -1.52851759772052   -1.63096329043584    0.88264804109764
H          -2.10347904320086    0.39468978082851    0.72953537417206
H          -3.37081190828984   -0.25281971112697    1.53792732325355
H          -1.94951263555420    0.03323722390297    2.29430162050387
