    26
        -50.47166720  Gyration_radius:  2.38844403753 Dipole_moment: 3.170
 S          -0.66995350852253   -0.36741691366294   -1.19828424490397
O          -0.65943485138186   -1.01499947225858   -2.60827131040771
O          -1.98690760499227    0.21042095132602   -0.97981122268646
O          -0.37673248491519   -1.41601700744987   -0.22698830150676
O           0.36099644548604    0.67406929185458   -1.17884823916462
O          -2.00622183511727   -0.75942452380535    1.76629999260523
H          -2.78920490206617   -0.53446247394239    1.25834585756028
H          -1.38838386116913   -1.13512111449795    1.10785702586100
O           2.11364612667623   -2.12113169216442    0.12659006671891
H           1.15282075143463   -1.91262627005149    0.05372971282572
H           2.16872871720260   -3.03556314321370    0.40765964445290
O           1.65849824332146    0.54853963501611    1.16508931653113
H           2.06096354510554   -0.32742219258591    1.17619629481056
H           1.25463731578513    0.62330978365897    0.27969873488485
O           1.94457477392313   -1.12803950524628   -2.44316388449142
H           0.29802581001916   -1.22192771832202   -2.75150481992788
H           1.80484603878769   -0.22205778661302   -2.13428318444968
H           2.21873739839667   -1.62057460541854   -1.64811760945272
O          -0.54824779072360    1.36791902938562    2.41944928491767
H          -0.94584988895652    2.05897398117956    1.19950474430719
H          -1.10969166243529    0.55784480223303    2.38731931331075
H           0.35577304146470    1.06458112450831    2.17407795380897
N          -1.18872998632979    2.39812152835424    0.16635087632605
H          -1.70736611820202    3.26950453983246    0.13804606645314
H          -1.70439646215892    1.59312863256382   -0.30009850691872
H          -0.31112724063554    2.45037110930200   -0.35684354149343
