    26
        -50.45731607  Gyration_radius:  2.44440415821 Dipole_moment: 6.860
 S           0.12730857864018    1.93760520532050    0.48231776982503
O          -0.40289866630011    1.85305409472883   -0.86729340070739
O           1.46284076462677    2.49038406898292    0.53505818106377
O          -0.82884427116384    2.82823649584351    1.33211478035462
O           0.11689921694860    0.60495080093568    1.13835917322846
O          -2.44693871416520   -1.42763487864663   -0.39881800639914
H          -3.13084971156640   -2.09746869080117   -0.42389475485142
O           1.90439259818176   -1.58408691661617   -1.08452578389486
H           2.37616198727760   -1.89571564699464   -1.85796837400849
O          -2.76536796860108    1.33444306469544    0.25247914104089
H          -2.15805803337480    1.57961088113856   -0.46306318697081
H          -2.79458910797703    0.36582936838658    0.21639833818178
H          -1.69830893684878    2.39865321711967    1.19907234648120
O          -0.24675377413103   -2.04676653447580    0.97015578365561
H           0.45816004718775   -2.22098472599805    0.33640769497124
H          -0.19156112563097   -1.09269528206533    1.16512645453018
H          -1.73063593428957   -1.76701553943187    0.18709628877108
O          -0.28380184973454   -0.53550633308437   -1.96698138314690
H          -1.09997485943322   -0.90889410219354   -1.59753606819222
H          -0.28742181968698    0.39936811341401   -1.66698261683594
H           1.05260440580739   -1.17639630092500   -1.43862586238838
N           2.57544530231361    0.17135421311045    0.79629687049163
H           2.54368762269923   -0.49393740239855   -0.01610714750135
H           2.60541736425339    1.17400217861545    0.50817994112230
H           1.56332780611972    0.18040546461967    1.17853681456816
H           3.27975907884726   -0.07079480328046    1.48419700661174
