    26
        -50.45450928  Gyration_radius:  2.45175064829 Dipole_moment: 5.290
 S           2.00644501936790    0.42896609628556    0.38802845374014
O           2.94462411916241    1.42024007012076    0.00328191739784
O           1.88911875977896   -0.59058710288403   -0.75751007441836
O           2.52590994925850   -0.39799059558166    1.58411879318290
O           0.68326541814050    0.91550478283858    0.73413672236681
O          -1.59427042387660   -1.64135602378176    1.55892572577152
H          -2.37829082170822   -2.07724095559521    1.89478019022312
O          -1.50085324226060    0.18335334544547   -2.13125112479079
H          -1.80216785854108    0.08740656528967   -3.03557845060552
O           0.41564778062772   -0.57695881508970    3.04974537992847
H          -0.25285226653364   -1.12202073840152    2.58777009303356
H           1.76187336128606   -0.56005550513284    2.21758787081867
H           0.16600730772339    0.33548004648721    2.86976820981642
O          -0.28676399114343   -1.86973999960312   -0.83015281795301
H          -0.70289058014946   -1.93292758449752    0.04895203411182
H          -0.81192860035389   -1.21742621611107   -1.33918909501003
H           1.03278344711105   -1.15981501498177   -0.74351085826221
O          -2.00204123676031    0.72267218359762    0.54411725346003
H          -2.10914613696229    0.61182153839801   -0.41257562893658
H          -1.87428597557065   -0.73814583022778    1.23340934840474
H          -1.06900434917539    0.97704478744113    0.65379940870983
N           0.66918900198691    1.73242891266359   -2.06644833474807
H           0.75985375914526    1.84590834241689   -1.06165250965860
H          -0.70736540374977    0.79298426481720   -2.15513813061527
H           0.76479405803737    2.64902392080076   -2.48776994361024
H           1.47234890515880    1.18142952528504   -2.34764442235548
