    26
        -50.45450942  Gyration_radius:  2.45186415324 Dipole_moment: 5.291
 S           1.92791669619267    0.09027662503512    0.79780033634573
O           2.51230793833827    0.08678747484878    2.08982291525438
O           0.75445521462957    0.93019614182945    0.64027453163986
O           2.95197464522141    0.51464218134505   -0.27724166333702
O           1.56804858396969   -1.35915747890625    0.43021227313384
O          -2.16434862931236   -1.30604619623149    0.66410597380824
H          -2.74723316889147   -2.02759058080791    0.90366063093781
O          -0.68386831387409    0.76721479882337   -2.57107532441747
H          -1.22586903927198    0.98971199932402   -3.32881347248184
O           1.54217261234775    2.09325313434022   -1.74513961428381
H           1.11361794761718    2.48700518170164   -0.97797484860507
H           2.49205000807702    1.11813953980531   -0.93702879968840
H           0.84190909487184    1.57837505937110   -2.19439140325023
O          -1.76635147906724    1.28046728887637   -0.25820624466653
H          -0.90281874368293    1.29372228467946    0.19051984852974
H          -1.19041429824560    1.04233728729264   -1.75382220442288
H          -2.18521074333077    0.46363991751781    0.05233083356883
O          -0.28104534474755   -1.60303623021305   -1.27173226985956
H           0.86455546806739   -1.45480059994618   -0.31392151120029
H          -1.04182946343363   -1.55542379012079   -0.65587793545471
H          -0.34769116600546   -0.82358608970432   -1.85309770414343
N          -0.36341025342347   -0.92514219907480    2.59404815885915
H           0.05485276884827   -0.06245507106924    2.26018513182809
H           0.36296112110578   -1.62681540007639    2.50596427353896
H          -0.55762662801621   -0.80877329450745    3.58172864454239
H          -1.52910483799961   -1.18294198412242    1.42766945382648
