    26
        -50.45450935  Gyration_radius:  2.45181105983 Dipole_moment: 5.292
 S          -1.32565933887024    1.49681905923831    0.60208583529463
O          -0.10423667340805    1.34291018930790   -0.16716584139198
O          -2.49234128768946    1.63714506490545   -0.39980798925900
O          -1.62236425570750    0.18689001960272    1.35144971285689
O          -1.32890553818251    2.55610542984792    1.54483512454665
O          -0.16433421117511   -1.38780497424042   -2.39001825136575
H           0.08018554515763   -1.97091634406283   -3.10947937639303
O           1.70851794922499   -1.51178868711533    1.27501276246050
H           2.07305122760368   -2.11579561950510    1.92314880166179
O          -1.33910274418663    1.05355556826807   -2.62779571531650
H          -2.15798959287250    1.39548475801733   -1.31678590615890
H          -0.54418367108727    1.54198766187987   -2.38950100119209
H          -1.07453876907708    0.11167228962607   -2.61743578330127
O          -0.76647496795585   -1.90453100420390    0.22517573747568
H          -1.33535903410926   -0.66820743359753    0.85709951403420
H          -0.68547002112735   -1.79284867254777   -0.73968586626875
H           0.14552911704931   -1.88994157253038    0.58348850586869
O           1.83570263719969   -0.23370789164333   -1.18464038883697
H           0.67949113472283   -0.98325409301781   -2.03729335312499
H           1.26884469639269    0.47411358267131   -0.83127700716249
H           2.05633491261767   -0.77292005466003   -0.41029769432012
N           1.02706413464492    0.77756435775809    2.46145458688630
H           0.81141414219721    1.33095835056922    1.63806241190122
H           1.49679164581424   -0.66213623216657    1.75977409665177
H           1.61692898729046    1.34088763295772    3.06275466007585
H           0.14110399555722    0.64775860464485    2.93684242437838
