    26
        -50.45450929  Gyration_radius:  2.45178196471 Dipole_moment: 5.291
 S          -0.16354691090433    1.67057781376569    1.24250340992570
O           0.63142603337030    2.79881040960738    1.56793958655752
O          -1.61421566746653    1.84665707878089    1.74131925419110
O          -0.22397095953969    1.32881081011672   -0.16710937157876
O           0.36819704655241    0.46451821904007    2.03502782312069
O          -2.12998851988562   -1.55522322754172   -0.84445481903643
H          -2.62296174925758   -2.21670705427237   -1.33116629657056
O           1.98377694353436   -1.57089587029540   -0.65325958698025
H           2.73931334982409   -2.15412086130953   -0.57089438215913
O          -2.96606705816723    0.96732933317566   -0.26684968025589
H          -2.24028566807393    1.49768477577055    1.03600964062841
H          -2.37366385343716    1.38814138998799   -0.89870716828625
H          -2.80811246973617    0.00691794476497   -0.36677968412804
O          -0.14530166303168   -1.78969977269529    1.02011048848444
H           0.61703872679932   -1.84036054876761    0.40630266773986
H           0.09745891378805   -0.45326437224625    1.65805106414032
H          -0.94564703744355   -1.76688216035279    0.46435388474898
O          -0.11608714370555   -0.51922933775531   -2.13127209572705
H          -1.41397757090467   -1.21268953916345   -1.45281099861741
H          -0.10376192787824    0.27010819698631   -1.56201700293288
H           0.67673595291768   -1.01307519199261   -1.87329708473838
N           2.63086106864263    0.86681489257295    0.21404528602364
H           2.28277187975200   -0.66674995883079   -0.34524368399850
H           1.79708024731906    1.36979800134306   -0.07319484987725
H           2.60972859929342    0.86933544125353    1.22759048852407
H           3.43319941760781    1.41339358806844   -0.07619691917830
