    26
        -50.44585995  Gyration_radius:  2.58727161486 Dipole_moment: 4.978
 S          -0.46518244675392    1.51884877208353    0.46648910837946
O          -0.66281506643662    1.37292069790605   -1.00861733243940
O          -1.65697444176599    2.40533977697013    0.95582476722882
O          -0.58883556191281    0.23305040459250    1.10975169533417
O           0.77557262260605    2.19349770453974    0.74746959742025
O          -1.91960451035565   -2.48162188448042   -1.00636325016378
H          -1.90558846197276   -3.37386688067078   -1.35679609205823
O           1.80269077718229   -1.72167015323649   -0.25851254383506
H           2.62050739039187   -1.82402848561252   -0.74786276630952
O          -1.34086381683525    3.92961474286937   -1.19650069550428
H          -1.60857997853907    3.18748760231574    0.37331902878085
H          -0.93264671367578    3.06456986323883   -1.38571410870419
H          -2.12141295561404    3.98925435029465   -1.75236140090700
O          -0.55794095650670   -2.42104927665616    1.21576340221172
H          -1.55444617143747   -2.52884894613162   -0.07782066613652
H           0.34700747336837   -2.51054067193424    0.89296375212435
H          -0.66958585669211   -1.46123936346174    1.35979003725723
O          -0.08900367218518   -0.88125914480078   -1.77318071672196
H          -0.89084179959095   -1.48165212967826   -1.54556472823406
H          -0.35652389211161    0.12713259782651   -1.45436349059846
H           0.67363468905014   -1.18919144117445   -1.16282109600329
N           2.28147536094900    0.01660080166350    1.58729913895190
H           1.99355021892992   -1.02415852522199    0.47927541055941
H           1.79764595918229    0.86346149688709    1.26876210929169
H           1.80099885320216   -0.27679848645440    2.42920736927825
H           3.22776296752135    0.27414658832808    1.84056346079581
