    26
        -50.45489327  Gyration_radius:  2.43209962971 Dipole_moment: 9.426
 S          -2.08812702406739    0.47689434342891   -0.42997333579215
O          -3.35206918122800    0.95565685538136   -0.86042387684756
O          -1.78772803601473   -0.92106069328064   -0.85154989113754
O          -0.98989624584880    1.35431063871374   -1.17456420149311
O          -1.78984019793698    0.57806232308806    0.99286970482114
O           1.02737154732433    0.45926388657459    2.36168868479527
H           1.13498552484260    0.36799485716133    3.30919519749139
O           1.79773726922114   -1.69806348531897   -1.19638427806079
H           2.41061439984882   -2.29243789075154   -1.63016172782878
O          -0.40209518439010    2.58356734999635    1.80493460771478
H          -0.15720864626197    3.05347791031261    1.00469923589989
H          -1.10317397947862    1.93944115524670    1.53273375815632
H           0.49696631478632    1.29489038902647    2.23246961595972
O          -0.08077329846981   -0.91650955002293   -2.82642720552379
H           1.11019356549986   -1.45519230612566   -1.88285954245085
H          -0.84133605636817   -0.98975222558058   -2.20170816067839
H          -0.04306715920739    0.01594824951449   -3.05610650941691
O           1.50455547937812    0.92332137085825   -0.35208339125344
H          -0.08585162289969    1.19030740940477   -0.81766569310152
H           1.60239136750772    0.87294152488205    0.60736376732925
H           1.82324155440999    0.07825485755535   -0.70330823747809
N          -0.02423722177966   -1.58812771647813    0.84962100253116
H           0.20354974087860   -0.77638457941625    1.46629334706885
H          -0.29193106658495   -2.39194259991107    1.40740804514387
H          -0.85399023883247   -1.30938171868384    0.18058062690452
H           0.77971841567136   -1.80548034557640    0.23335845724672
