    26
        -50.45590515  Gyration_radius:  2.44287309699 Dipole_moment: 7.043
 S          -1.52482789315896   -0.78144668489785   -0.57579043938109
O          -1.32479765008433    0.23521997319269    0.61046614945028
O          -2.39893980169504   -1.79688495379547   -0.01311024520464
O          -2.01108311780024   -0.07146157388539   -1.72588241603199
O          -0.16768982292205   -1.34733692800737   -0.79700775418157
O           0.77477335546905   -0.48327929514411    2.86210346964759
H           1.58532146851417   -0.65923575798794    3.34321401303263
O           1.38555665648481    2.19191752797207   -1.51935263848755
H           1.75471450127745    2.85419954949637   -2.10517556001848
O           0.29502603250715    0.29585423504523   -2.94595388652221
H           0.99200078579851    1.48974513846518   -2.11402409700455
H           0.58988589671772   -0.52332131316286   -2.52900111718650
H          -0.65577105763263    0.31983556222682   -2.70743817388885
O          -0.74862048826390    2.71410873048568    0.01822736430576
H           0.02337205627273    2.60588121222438   -0.57945998290022
H          -1.21045267136822    1.17136948134415    0.30333188425464
H          -0.40791434663974    3.03445159176902    0.85600348514964
O           1.65703757517454    0.17687817140523    0.43796425546649
H           1.05145989845470   -0.07304716917064    2.00937833751988
H           1.03066591630367   -0.37626311132033   -0.07103056411528
H           1.75649797389604    0.98365040160594   -0.08355002432901
N          -0.47884356092040   -2.42599197391394    1.51421817623777
H          -0.13412181474145   -1.70057349066805    2.19511742605839
H          -1.47762319206152   -2.23072499187318    1.17744969587063
H          -0.00904602736681   -2.22874914600036    0.59153538402545
H          -0.34658067221872   -3.37479519541513    1.84776725823085
