    26
        -50.46095759  Gyration_radius:  2.41768902191 Dipole_moment: 4.507
 S           1.71310216633750    0.10131832527991   -0.19009048778652
O           2.48386001525753    1.18813091083793   -0.78554789659579
O           0.79905909546568    0.84930816850321    0.88834317547866
O           0.76614272295535   -0.45003524518667   -1.16370191032996
O           2.45788901014756   -0.91166679355054    0.49662890558509
O          -1.59606377925510   -2.04321840377805    1.29268482849728
H          -2.07901223725933   -2.77746952110038    1.67423994551240
O          -1.17447941338556    1.16890495973879   -1.80335540814099
H          -0.49375358567584    0.45746216050865   -1.74188571140277
O          -2.00003616048802    0.67550986628414    0.68539535182280
H          -1.72454469640705    1.02953482425010   -0.99936715636766
H          -2.09283460889024   -0.26484085266625    0.90059827939563
H          -1.09485107477206    0.89567412244885    0.94693948991247
O          -0.26402655433471   -2.82728338952501   -0.83646752404170
H          -1.14628287504410   -2.38922146049876    0.48094448794371
H          -0.67626262567490   -3.00517065415487   -1.68373166516499
H           0.24466954136440   -1.99070975811298   -0.95848223119751
O           0.70207479620148   -1.12220249622050    2.49002532237624
H          -0.11042591489741   -1.55363875754804    2.16063774894435
H           1.44687504007601   -1.45193075112901    1.95798086236784
H           0.75620986086534    0.18482539849008    1.64492201273271
N           0.61245715000395    2.88556266539310   -1.09507982006895
H           0.81884519970515    3.63909050175786   -1.74303640536767
H           0.39877217982881    3.24895428408192   -0.17068589734309
H          -0.21711756516933    2.25768619682706   -1.44900858508840
H           1.46973434305183    2.20542571907273   -0.99889974167603
