    26
        -50.46095757  Gyration_radius:  2.41768194901 Dipole_moment: 4.510
 S           0.60303931788472    1.58101005410663    0.34455628977365
O           0.78666310015714    0.83900872638076   -0.90619142411183
O          -0.36202368879075    2.63364915224965    0.23027193812138
O           0.02814551867133    0.50303171510155    1.37681571263154
O           1.89503539926891    1.93910521660528    0.92093724584146
O          -2.59441439710832   -0.80743014319687   -1.00458549612346
H          -3.44245954945526   -1.01503678850821   -1.39912431400627
O           1.80709173543544   -1.54011002170335   -0.59884034270129
H           1.48525265121816   -0.66330399516863   -0.91655448286058
O          -2.40977995894118    1.09762661943776    0.97059646423909
H          -0.96025614735281    0.69982582121583    1.37872260230960
H          -2.03399255704576    1.89426278431889    0.55744003080179
H          -2.61084683613473    0.46141545489971    0.25676351776328
O          -0.57278307523231   -2.09121273132340    0.47412400760953
H          -0.42728539425164   -1.30039499085394    1.01234402409880
H          -1.32997387260001   -1.86650110940410   -0.08745075338051
H           0.98467683830371   -1.99242135475335   -0.30299971810358
O          -1.14712457877229    0.64771407506669   -2.65077495271756
H          -2.08469715104599   -0.29208679142556   -1.67955184755133
H          -0.42756751772789    0.85306034096234   -2.00767431085498
H          -0.70787386524858    0.29240251488531   -3.42552275364529
N           2.72938235199729   -0.39109877479267    1.51558744692532
H           2.42316963898572   -0.98025629531162    0.63988624748103
H           3.72761654687538   -0.45933544765256    1.68633131073967
H           2.44116027847458    0.64327124900252    1.28397335572475
H           2.19984520248284   -0.68619526012599    2.33092022199983
