    26
        -50.46095759  Gyration_radius:  2.41765512109 Dipole_moment: 4.508
 S           0.43829557039253   -0.07600247410286    1.66848633702187
O           1.76702631420344   -0.28416796058966    2.23500304283580
O          -0.66457803009142   -0.13736060933183    2.58082295054841
O           0.41926742587159    1.12808134989595    0.83275273245795
O           0.28595590853634   -1.28944605399966    0.63775561582404
O           1.81077990699011    0.92919254499726   -1.36283659851841
H           1.30132840131786    1.21371240847416   -0.56734320791007
O          -2.61859749370275    0.26571985073092   -1.21005403542198
H          -3.49879483054508    0.41948578379134   -1.55584314735710
O          -2.23706075254582   -1.46799920254981    0.89040329819741
H          -2.08776658534832   -0.92164868241580    1.68143852541784
H          -2.51112485699380   -0.87156551113261    0.16654767917409
H          -0.69094001764711   -1.52568261584349    0.71295714737818
O          -0.14020703889476   -0.74059529067902   -2.08680228244758
H           1.15575243170464    0.40727548797225   -1.87947063420746
H           0.01652873083722   -1.17065326460055   -1.23431169254354
H          -1.03390370917372   -0.37320219004095   -2.01247966390862
O          -1.82890206988023    2.31603394057930    0.23738125043221
H          -1.54226684500506    3.15051448454248   -0.13801204261582
H          -2.36388442917567    1.08000203232136   -0.70707313479587
H          -1.01271661337813    1.88891289494226    0.59081853268382
N           3.03948067768136   -0.80634451458974    0.09319519519231
H           2.61967971047736   -0.07606876064922   -0.61255550879175
H           2.76622227043119   -1.74576191758517   -0.18081400620005
H           4.04899818252134   -0.72722731800651    0.16283477229925
H           2.56142775143277   -0.58520440210624    1.05719886526602
