    26
        -50.47166718  Gyration_radius:  2.38844226099 Dipole_moment: 3.170
 S           1.13589232997973    0.65488347652988    0.54883958982420
O           2.65398179871112    0.97478771931351    0.52507860161895
O           0.98864530589991   -0.80258485752992    0.59434536936186
O           0.56728259951585    1.26520599978705    1.74057057358865
O           0.54808037880693    1.20528136472084   -0.66794416116968
O          -1.77442126179687    2.12486446931728    0.23751881147466
H          -1.47411981685098    2.51990062369351    1.05941573046048
H          -0.95143934728569    1.86745051484324   -0.22388189819768
O           0.78740553807030   -0.15092999351088   -2.88765634551898
H           0.77994108841679    0.43672432679861   -3.64451615292598
H           0.65266037289728    0.41925914281086   -2.09473624606664
O          -1.00235535862125   -1.51253332073548   -1.05652106110305
H          -0.70981992987405   -1.22845733454256   -1.93012436699899
H          -0.24465192482455   -1.32668007192264   -0.47002449119031
O          -2.75695616295522   -0.32587769517586    0.56448036149999
H          -1.85055916289843   -0.57882416239186    1.67745373073689
H          -2.58945949878010    0.62779113219487    0.37764713691954
H          -2.30184511652220   -0.81391528182870   -0.15953128114141
O           2.92742659692801   -0.87297328399385   -1.30027713777186
H           2.99376111071339    0.39047930077657   -0.19825775959445
H           2.36325899868628   -1.34916714936960   -0.67517816198167
H           2.35066266137459   -0.69114925934345   -2.06453603147278
N          -1.00073548994037   -0.69922103665954    2.38778730239540
H          -0.41526456357281    0.18534444442561    2.30766793861324
H          -0.38415021744691   -1.42457060935317    2.01316923981688
H          -1.29322093862614   -0.89508843884497    3.33921071880277
