    26
        -50.45462550  Gyration_radius:  2.43333987897 Dipole_moment: 7.030
 S          -0.09302726286724    1.90751069774450   -0.39999332015094
O          -0.87569423607997    2.48759624346082   -1.45590638696570
O           0.45709435612687    0.60404016397421   -0.72766445082015
O           0.98123219022870    2.79227217589350    0.10861915619067
O          -1.00536225112278    1.68930999436055    0.86805990843253
O          -1.71277420739959   -1.80327383028765   -1.23855390817864
H          -2.58362545274495   -2.16318687716404   -1.41338392256957
O           1.45049553377368   -1.42738328768438    1.50552749898613
H           2.03121664992593   -2.08966423981442    1.88231657343789
O          -1.30372743568888   -0.84198159156988    1.25504810096857
H          -1.49633830926882   -1.20709709935392    0.36507894668658
H          -0.39907880273116   -1.12336472078475    1.45638143580727
H          -1.20652982574713    0.71185411441516    0.98578373085947
O           1.07850553919405   -1.91806012014073   -1.02316606218487
H           1.36955308828839   -1.65111467072888    0.52998084113289
H           0.17488094573221   -2.24224623309346   -1.14517559904717
H           0.98752792533213   -0.95298569176288   -1.14172325430818
O          -1.57606207280713    0.32408466172504   -2.80229261641470
H          -1.64102599288656   -0.98703866963965   -1.79966008507507
H          -1.41917871804109    1.15905763563230   -2.30693006152462
H          -0.81480696024113    0.23469893441311   -3.37940810958980
N           1.54495157267659    1.27918511687062    2.00466980642940
H           0.70459129104723    1.39145534852583    2.56749086621091
H           1.38219359304543    2.01089259395104    1.09498098915618
H           2.37426569231419    1.52196515770830    2.53662596917992
H           1.59072313994052    0.29347420334974    1.67329395334917
