    26
        -50.46095758  Gyration_radius:  2.41775992402 Dipole_moment: 4.513
 S          -0.07784939304178    1.68442954259461    0.37129616160363
O           0.93600607782808    2.50279505128969    1.02873340570493
O           0.45776648971141    1.09323576229382   -0.85843294732032
O          -0.25689222629796    0.44996170152646    1.37227906763577
O          -1.36499597038192    2.28524189312131    0.18498346053219
O          -2.01157798948474   -1.72622824067366   -1.16808079945198
H          -2.68613483589928   -2.23820285886853   -1.61618396966485
O           2.29568704025259   -0.71386749104677   -0.46521583314173
H           1.68174241483379   -0.02359985018220   -0.81112253548920
O           0.24887150773058   -2.15864425923776    0.45210499015751
H           1.69416698294537   -1.45328369799927   -0.22051620667385
H           0.04333310044084   -1.38301484334301    0.99281264005106
H          -0.49849842827857   -2.23250886604190   -0.16043389433964
O          -1.13464979106546    0.20330369592007   -2.72728707894994
H          -0.54195689197601    0.05806299212537   -3.46691763701801
H          -1.69812135570659   -1.04221853164511   -1.81208677031024
H          -0.59391754052051    0.65870194426727   -2.03896867029092
O          -2.70388703205380    0.06512106269206    0.80074414678606
H          -1.24246972122764    0.24996389623110    1.30730368747100
H          -2.63915958269169    0.95259686908659    0.40743243367074
H          -2.59747569062519   -0.58603043305517    0.08006641871590
N           2.56581829118883    0.66496568569648    1.69544648065328
H           3.50001522431146    0.98456987117854    1.93088606224107
H           2.56711350425185    0.01864631301410    0.80674773990014
H           2.14164219454374    0.17417363919526    2.47738557535286
H           1.91542362112399    1.51182914190614    1.43702407251975
