    26
        -50.46095763  Gyration_radius:  2.41782642167 Dipole_moment: 4.511
 S           1.46446917793744    0.84527787409477    0.34908634821123
O           1.89878160692763    2.13578761592106   -0.17613498581740
O          -0.00222246002351    1.15280578989663    0.90776898691036
O           1.25522056774833   -0.10937251743967   -0.74335853719893
O           2.23578719327162    0.29866938060295    1.42554522275606
O          -1.00347601796536   -2.48535628706864    1.10044443411197
H          -1.25815799690377   -3.34148367337268    1.44703949410739
O          -0.77670222690829    0.44831169666959   -2.27902563179590
H           0.05412172390159    0.11696624561106   -1.86308978809370
O           0.10466609491139   -0.58901476030030    2.75616225928068
H          -0.05607231141431    0.57023009641319    1.72838822797610
H          -0.27982390669647   -1.35019931376876    2.27928723789578
H           1.05871658688952   -0.57400808468903    2.56611683461538
O           1.22050150947280   -2.68158928785193   -0.29231238143159
H           1.35788012918750   -1.71170481768143   -0.41049022719333
H          -0.18547891597745   -2.62822757781874    0.56076002955081
H           1.26246197221424   -3.05758881676315   -1.17342921409459
O          -2.20013565008630   -0.25715286593786   -0.13550177813597
H          -1.98249259014690   -1.13080705995882    0.22303905209655
H          -1.62810050044560    0.35366253607242    0.35020249389929
H          -1.48206537798274    0.11255215510536   -1.68057394372011
N          -0.22880553430231    2.80856603190891   -1.40043726152026
H          -0.89860683407909    3.07824657352136   -0.68567478830742
H          -0.11350334671152    3.54699471245062   -2.08723374202595
H           0.72412249265987    2.58523797139591   -0.90125874078983
H          -0.54108538550343    1.86319638306605   -1.86531960131401
