    26
        -50.46095759  Gyration_radius:  2.41771053931 Dipole_moment: 4.505
 S          -0.10645363700064    1.39079373971331    1.01875208180653
O           1.10557284372858    0.35422610587377    0.89731504560689
O          -0.74636931713302    1.16806906103705    2.28096035516938
O           0.54174294844658    2.68521774734375    0.83418282407379
O          -0.97504106405998    1.08438948988203   -0.12155971038644
O          -1.12983036856459   -2.64341145755566    0.35950083553584
H          -1.57936229083272   -3.47845919557594    0.49567627144654
O           0.30082129161923    0.62755063725084   -2.34863810287218
H          -0.34833481827660    0.83358636861652   -1.63489932547517
O           0.07886906258268   -1.35897518351766    2.46988040128375
H          -0.40049987063417   -1.90561786129276    1.81708324483428
H           0.85799750662663   -0.35870404986358    1.56523948216772
H          -0.50327153434098   -0.62069541255264    2.71993576987631
O           1.04131187773265   -1.61533822415989   -1.10788229813649
H           0.57608473942455   -0.29571613496389   -2.14817720251398
H           1.29504623126116   -1.03539600897638   -0.37605530574234
H           0.30839962948491   -2.14293380472824   -0.75641325664249
O          -2.87598297562404   -0.69546894547239    0.07672513448312
H          -2.21959587224797    0.04071821910360    0.10233210870778
H          -3.39167536916762   -0.55460583751297   -0.71923035285812
H          -1.83353340547766   -1.95968515481908    0.22487190526391
N           2.03341350844665    2.10882493267062   -1.14626916725966
H           1.36811282190087    1.49600857672515   -1.77031288029213
H           1.41621928665028    2.43432407149461   -0.29784524467960
H           2.78694371564806    1.53420550171992   -0.77996406227798
H           2.39941505976987    2.90709282960501   -1.65520853116888
