    26
        -50.46095757  Gyration_radius:  2.41781927526 Dipole_moment: 4.508
 S           0.44145728281163    0.15385978561094    1.66176435631321
O           1.14066761526412    1.26291572263490    2.30271932876229
O          -0.76385150250634    0.87459653315432    0.89657009916183
O           1.26553646340162   -0.42606393553549    0.59731109916648
O          -0.12255511835687   -0.83599069556393    2.53045491832985
O          -1.50590713401252   -2.09197148910511   -1.32281563402558
H          -1.95191533856827   -2.84081945744252   -1.72064540907184
O           1.60140932298152    1.13232016245360   -1.46569645575231
H           1.64550762364782    0.44172399389414   -0.76269380043498
O          -2.35363451824393   -1.09881619793403    1.09773188089238
H          -1.51558323056944    0.20945231640523    0.98631943763645
H          -2.14646028364772   -1.55553912449823    0.25913128719857
H          -1.71546420800798   -1.40525228393117    1.76509489957568
O           0.80217127841359   -2.83455744757146   -0.30035830898394
H           0.99360311022063   -1.98278173943257    0.15933086268526
H          -0.63458625383063   -2.42375410239353   -0.98895118330055
H           1.58019217830754   -3.02377537326643   -0.82786976292907
O          -0.98022281720468    0.61354222310617   -1.89547737830678
H           0.72477779348391    0.97660833332803   -1.88487600334018
H          -1.20174081097137   -0.32940461525116   -1.92594961320170
H          -1.10555152961002    0.86229430712111   -0.96889747786168
N           1.16339885185222    2.90226395158140    0.35578829851826
H           1.39059681830230    2.24930307822093   -0.49836013589950
H           1.83353557004123    3.65987013945339    0.44056334103595
H           0.21690016353530    3.26182839301312    0.27192024108606
H           1.19771868324013    2.24814753193007    1.23789113274672
