    26
        -50.45450924  Gyration_radius:  2.45156683644 Dipole_moment: 5.288
 S          -0.13120865634140    1.07538817635574    1.78410859110501
O          -1.07479766410334    0.37199596620713    2.78384509574202
O           0.22679261247895    2.36958970204584    2.23990833528493
O           1.13492401023491    0.20231071035343    1.77712835069557
O          -0.75904559897561    1.02030294977856    0.47643020691644
O          -1.49683992180751   -2.25101543021328   -0.60087828324555
H          -1.87722631643578   -2.96904442953333   -1.10803189979870
O           1.80714037879952   -0.15016650452873   -1.88194053434443
H           2.65611855264202   -0.25581417848970   -2.31305685146156
O          -2.80673112954736   -0.69365808950571    1.20325438822716
H          -2.37252717047182   -1.39246573864171    0.67371779355461
H          -1.78603165639320   -0.11459328436826    2.26560992935815
H          -2.82084518202405    0.08293711494757    0.63404513190514
O           1.07398310775010   -1.75539101196629    0.18386088510000
H           1.37759105556075   -1.28572177605071   -0.62090176516346
H           1.08032756719982   -0.63373214427528    1.18063397758132
H           0.16303706564924   -2.05138963646277    0.00347262799353
O          -0.96574895572383   -0.09994906667681   -1.97049834744055
H          -0.03307425161542   -0.14441625160057   -2.22969090727781
H          -1.37416119609940   -1.47988480632699   -1.22572177352760
H          -0.96754644636029    0.45872124215910   -1.17354657258584
N           1.82772321722726    2.05668671191948   -0.38430383167633
H           1.85380363526131    0.70165912252801   -1.35851319957148
H           2.31299096526676    1.85613492957598    0.48287204326783
H           2.10752206906558    2.98331408195530   -0.68401567641289
H           0.84382989876565    2.09820164081282   -0.13778770422809
