    26
        -50.45556807  Gyration_radius:  2.43273812708 Dipole_moment: 7.581
 S          -0.14411592494413    1.63844093124728    0.98640030010791
O           1.15956080100291    2.29201486605568    1.15931453704332
O          -0.78654961245063    2.00480546492877   -0.26099830022106
O           0.03116256207166    0.20003971779149    1.13965327912384
O          -1.05422579346031    2.11620684225919    2.16767846336642
O          -2.22124369567668   -1.46969788183591   -0.94600308412506
H          -2.98287887553891   -1.63685223219678   -1.50257002477438
O           1.93666501006104   -1.03028400213397   -1.32422643739690
H           2.44528733969689   -1.66101605985115   -1.83604859794909
O          -2.88505402966991    0.70957275713597    0.78856576054335
H          -2.42156120358579    1.27946682708767    0.15643807843062
H          -2.70917015769954   -0.19134211094673    0.47315847044071
H          -1.88482963105235    1.63434947529664    1.99320538099569
O           0.18297346040555   -2.22411521156773    0.14585331439199
H          -0.68009979592992   -2.31866981304928   -0.28635126666079
H           1.24775428879793   -1.56420866540823   -0.81172302000964
H           0.06786981028267   -1.40222056699578    0.66585801915144
O          -0.54506307105703    0.18394083123131   -2.17135842747508
H          -0.63976488387331    0.94308524268891   -1.55928197447777
H           0.36432449662817   -0.11997060986198   -2.06012080317497
H          -1.63965814626094   -0.84806475549514   -1.45405065312122
N           2.67434259209264    0.28198967736310    0.90614821120575
H           2.48903325830926   -0.13911165037735   -0.04004951236124
H           3.66435234702510    0.42210151834551    1.08188682748286
H           2.08885592085615    1.23098736228404    0.99256500908836
H           2.24203292396460   -0.33144795399071    1.59605644037872
