    26
        -50.45556823  Gyration_radius:  2.43279690393 Dipole_moment: 7.579
 S          -0.01834762545226    1.76225135647882    0.75727001530637
O           1.33335450789041    2.32477761985653    0.87119401120004
O          -0.89908318814427    2.46752423328304    1.84301419034280
O          -0.61307575644547    2.00806331387700   -0.54231161097259
O           0.03385617682252    0.34818753452720    1.10505859443834
O          -2.32491103708186   -1.39793084655022   -0.79270146414065
H          -3.09176154899801   -1.57505635443156   -1.33897494813603
O           1.86039623172644   -1.35204880879068   -1.13272201710095
H           2.31999291923371   -2.08487289264740   -1.54532432665591
O          -0.00392419519732   -2.19107211237836    0.44281643742929
H          -0.86691916976690   -2.27316528100829    0.00788377633715
H           1.12333095552851   -1.75461413047935   -0.56980389413907
H          -0.05663979761904   -1.30026276693928    0.84651405018921
O          -2.82468079995203    1.04120118606699    0.62212321862608
H          -1.76502178448771    2.03588255104549    1.71543392833482
H          -2.30765868811568    1.48105843135726   -0.06960894885237
H          -2.72107294632701    0.09471681279488    0.43377835226954
O          -0.50216969078973   -0.06554804552451   -2.18882430075815
H          -1.68757045307221   -0.89960246971069   -1.36553783176034
H          -0.54030188961561    0.77384813586715   -1.68500124724235
H           0.37755678382167   -0.42427280589621   -2.01823644869994
N           2.67656313110236    0.18178583230209    0.92205922396642
H           2.46997311335175   -0.34505656209603    0.03516603846570
H           3.67223782299180    0.26190894678405    1.10347400178654
H           2.17267764756595    1.17859885816252    0.86796369084346
H           2.18319928102899   -0.29630171595472    1.67529752892723
