    26
        -50.45462532  Gyration_radius:  2.43338221902 Dipole_moment: 7.032
 S           1.56511311747372   -0.90850529548118    0.72839705669730
O           0.73112277480986   -0.62169537981831   -0.42534605910652
O           2.89571710563298   -0.28009201928883    0.55470193752276
O           0.94214175296486   -0.09707139773939    1.92902984762263
O           1.61841578830018   -2.30247530974397    1.07181268925745
O          -2.46866163675366   -1.27219308304917   -0.10660842245524
H          -3.23537924442216   -1.67277204861807    0.30590961508962
O          -0.41543532496059    2.28468426357748   -1.00515002182230
H          -0.66678603402868    3.02673288187339   -1.55650065694592
O          -1.36210472787730    0.81153623298534    1.21410948735108
H           0.00648100358226    0.19147511679483    1.70322238052543
H          -1.12354640282755    1.42425103900879    0.50291306923490
H          -1.79979117960999    0.05526408401976    0.76815953013058
O          -0.62992112148813   -3.16959692934397   -0.01341160697259
H           0.17778710121202   -2.90131193428070    0.47932986036587
H          -1.75205372569443   -1.95854352625007   -0.06677267554556
H          -0.32501740805353   -3.34770880553004   -0.90551913151163
O          -1.10262851249640    0.05632787717365   -2.16081136708325
H          -0.67735587474698    1.45925509397355   -1.51347686354265
H          -0.33106020437202   -0.34771737589399   -1.71907372540221
H          -1.85436068045871   -0.32071502802300   -1.68201661594578
N           1.95849147496216    2.01947540925771    0.36504403580808
H           2.61434003365193    2.74719850855286    0.10051093674087
H           1.63443468686029    2.15017358323555    1.32082540290886
H           1.13088111698621    2.01677344049894   -0.26634572962946
H           2.46917609135533    0.95725060210863    0.37706703670796
