    26
        -50.45556810  Gyration_radius:  2.43275402509 Dipole_moment: 7.581
 S          -0.49294302427860    1.82132089464743    0.34370669034756
O          -0.73460206352746    1.72972709665453   -1.08322212604106
O          -1.73588410309504    2.50105374043929    1.01091084567828
O          -0.32585471632334    0.52168287622094    0.98106278553955
O           0.67318270171753    2.65489409450061    0.66293109567376
O          -1.77562519379285   -1.94558103440037   -1.02482877540486
H          -2.32417206847239   -2.36012909746831   -1.69192843224250
O           2.28197757686808   -1.11666469115577   -0.33596781755649
H           2.94294764478399   -1.79929370047807   -0.46094182719313
O          -3.00979141354279    0.53902204352995   -0.31608310777778
H          -2.45709005432651    1.88935652989761    0.76977424957916
H          -2.39413885552566    0.95638550409917   -0.93741686455555
H          -2.71659568210232   -0.38518202808405   -0.27221631997249
O           0.20250715516418   -2.04685189591977    0.87728443112883
H          -0.09329101566579   -1.13130630592409    1.06042202881181
H          -0.48337369063028   -2.36930229600964    0.27207329008210
H           1.48706031666553   -1.56239827729136    0.10198760357790
O           0.14013341814537   -0.51794837189820   -2.18123240476432
H          -0.16238054233689    0.36696465750084   -1.88911252709278
H           0.98127490652486   -0.66059184482784   -1.72975730497255
H          -1.08715250481309   -1.42843800056133   -1.51616038967938
N           2.25801007604406    0.86330560436709    1.48604213668631
H           1.64336150152531    1.71582856072792    1.10376657315868
H           3.14148364697783    1.17097430951552    1.88033861578755
H           1.65558503319491    0.42506445166869    2.18189276701099
H           2.38537094082278    0.16810719024976    0.70667478419006
