    26
        -50.45462552  Gyration_radius:  2.43340174093 Dipole_moment: 7.029
 S           0.17708103350889    1.61587889785088    1.07950778278321
O           1.52135485082977    2.21855567034722    1.23901984313241
O          -0.90297503373908    2.50194546539735    1.41461904013452
O           0.05799588106245    1.02092814294927   -0.23987724661428
O           0.20260726633624    0.41290736407110    2.09943884602700
O          -2.50328739734107   -0.97619295044464   -0.70858911530803
H          -3.35696976451554   -1.35598420424403   -0.49519139372084
O           1.63832638925018   -1.61023347577860   -1.06351673313433
H           2.13361799252051   -2.17819262681361   -1.65513210523393
O          -2.80197605037643    1.59845048770570   -0.18601675029175
H          -2.57982755012481   -0.00808000424863   -0.50108350638101
H          -2.16908012485232    1.93265469013527    0.48845057431374
H          -2.60212317437629    2.09974443329264   -0.97936153970723
O          -0.43573439836025   -1.75126838653880    0.85194996817379
H          -0.12782451185311   -0.42520398973070    1.65446580066903
H          -1.21416684457531   -1.50308273239961    0.30897102784457
H           0.29495064842704   -1.84489961153748    0.22308822210822
O          -0.30138088094346   -0.46085047418529   -2.36357377032040
H           0.92836504624723   -1.17529852649549   -1.62485834368766
H          -1.13852928548014   -0.85719773518486   -2.08326238885416
H          -0.19400296398344    0.29170388308227   -1.75054384718963
N           2.70655568234876    0.06417176402816    0.84400213439806
H           2.28747109053255   -0.42960362626648    0.02905203543041
H           2.22034022447084    1.13046245117295    0.97231718811892
H           2.44355661858930   -0.43269133171503    1.69227370643512
H           3.71565528639647    0.12137644555082    0.75385056087444
