    26
        -50.45556820  Gyration_radius:  2.43278767185 Dipole_moment: 7.582
 S          -1.18141497965017    1.51070313335429   -0.02187380926101
O          -0.04345656073272    0.91495271698599   -0.70988104365498
O          -2.08829779171512    2.16332726358511   -1.11917196930215
O          -1.97588101165168    0.54298944413879    0.70983174207377
O          -0.69543539922894    2.60026128261499    0.83436737863613
O          -0.62243720999755   -2.50412783648155   -1.15513093032972
H          -1.08460727746175   -3.34005713299651   -1.22819083037330
O           2.01496404687498   -0.56869093595559    1.47747511925461
H           2.78518709461375   -1.02802811635251    1.81542551521582
O          -2.50190287687717   -0.42258881821433   -1.73422710943633
H          -1.76955786809190   -1.05149109767343   -1.83506499168364
H          -2.60901773570445   -0.33161318244941   -0.77531165048251
H          -2.35601382857553    1.38935611612636   -1.64980989755810
O          -0.65803018093242   -1.66186648207767    1.36182789498320
H           0.21012911176201   -1.32280116552791    1.61283524419273
H          -1.21537254125997   -0.86772918629923    1.22558435376486
H          -0.67382749864907   -2.24318902986882   -0.20011157338972
O           1.69005762761736   -1.02752365832707   -1.04137030711099
H           1.92813882845642   -0.82949448396903    0.50434448829639
H           1.11203895631034   -1.78497541565509   -1.22289586067834
H           1.06853081103042   -0.27235985516379   -1.09333396242662
N           1.77123628787681    2.04030833697806    0.86678906408852
H           1.87179167520831    1.06762442672247    1.25528128993567
H           1.93328545485461    1.97915997289086   -0.13782080589512
H           0.69741294726156    2.34303338148815    0.94288923260948
H           2.39247991866448    2.70482034212770    1.31754341852832
