    26
        -50.45556801  Gyration_radius:  2.43271390622 Dipole_moment: 7.581
 S          -1.01068891541314    1.43152962054368    0.77923122181793
O           0.11083028668902    1.14639689559029   -0.10621271996634
O          -1.74993489243295    2.68098919200891    0.19248094102551
O          -1.96043040916828    0.33910888182959    0.86630417560670
O          -0.48452210424352    1.82366593114936    2.09301618626442
O          -0.78481637814642   -1.39624491610892   -2.32882843262446
H          -1.32573531880076   -1.99460787996090   -2.84568809842059
O           1.81658585830144   -1.52893233573784    0.96358555286122
H           2.50315420527519   -2.19588933129201    1.01103313764998
O          -2.38325077399357    0.89989967728827   -1.72019605503997
H          -2.05395563689267    2.35012835043699   -0.67388364517262
H          -1.71413633838337    0.33097874626360   -2.13337135529282
H          -2.55947077848386    0.48016668792837   -0.86463406026301
O          -0.93795147852255   -2.02565474134593    0.24527027055999
H          -0.06233066139076   -1.99030369339658    0.64993126167966
H          -1.39598029485863   -1.21526817805536    0.55084678498843
H          -0.88629828869141   -1.67905279963236   -1.38410091594789
O           1.65366423901516   -0.52878033362175   -1.41026002033788
H           1.01612321475185   -0.98894782565025   -1.97810773392554
H           1.12100883869816    0.21229378666168   -1.05489114472490
H           1.78347773880561   -1.21764828712998    0.00219109250295
N           1.89843633285714    1.00978872305726    1.85193990235606
H           0.85949719034101    1.36546715978577    2.06386196959036
H           2.13755999405592    1.47235839027783    0.97558083437163
H           2.54549163270409    1.24186755854771    2.59900827561863
H           1.86367273791692   -0.02330927943950    1.65589258481498
