    26
        -50.45556823  Gyration_radius:  2.43275370123 Dipole_moment: 7.577
 S          -0.00376424223317    1.82779728540003    0.58138187190170
O           0.59833925821751    0.91563241730092   -0.38230578900348
O          -0.20272555703458    3.19829330660586   -0.14940393653302
O          -1.29484297923735    1.37666030208456    1.06367651402513
O           0.95285161104302    2.05900718217252    1.67130284016893
O          -1.89370072145182   -1.08540194511058   -1.79515578780495
H          -2.75992323924255   -1.38849451864860   -2.07017186964003
O           1.07964430977962   -2.10401972060435    0.99000186913509
H           1.36690160564425   -3.01394800902011    1.07953005332623
O          -2.04113581432513    1.75712142393013   -1.48200480309029
H          -1.83721884450108    0.88470251718309   -1.85529980459052
H          -2.17120974259010    1.58862147363738   -0.53654015449498
H          -0.83027675459906    2.96231641894937   -0.85859237690970
O          -1.67357688454025   -1.23720562859787    0.84596599834585
H          -1.61241359548145   -0.27627217198831    1.02682004745200
H          -1.87541317161942   -1.16287428797039   -0.80703738430458
H          -0.81153664715004   -1.59673901571997    1.08948302066654
O           0.81128479043144   -1.45260337471543   -1.49312395661598
H           0.95542848604916   -1.93724855725768    0.00059044708130
H          -0.08521132019381   -1.59687369495388   -1.83385699143932
H           0.78862662889450   -0.50742412525067   -1.23738220565568
N           2.54407309369849    0.13878801200825    1.24711419412778
H           1.98914770896180   -0.75326959940626    1.30280815805039
H           1.87787541400741    0.98939580213051    1.53535973993733
H           3.39091826480439    0.10515647351367    1.80604638732936
H           2.73785835265967    0.30888200433410    0.26079389853616
