    26
        -50.45556821  Gyration_radius:  2.43278344635 Dipole_moment: 7.579
 S          -0.22274881889107    1.15901966471224    1.51194395969280
O           1.00878463399825    1.27103115654126    2.30397157609478
O          -1.04844354255891    2.46515465954365    1.76527145300394
O           0.13100803541332    1.14711956205866    0.09844813979609
O          -1.03375678322718    0.02333794236744    1.90625000838300
O          -2.12797591109874   -0.87280176572856   -1.64264463667093
H          -2.92160360694039   -1.36698062320194   -1.85187607437229
O           1.88768841834183   -1.60475293576844   -0.65717511173956
H           2.40614436600518   -2.22582776682187   -1.17092873011230
O          -2.84482282287960    1.13262759428655    0.27165032792160
H          -2.60238231463552    0.71122361747256   -0.56839044339433
H          -2.52046130751925    0.52026791942710    0.94919178052138
H          -1.83258091229204    2.32355782515658    1.20177526790683
O          -0.79405920768660   -2.07855471394059    0.31011080686375
H          -1.67969727977405   -1.36827513699809   -0.91030508476974
H           0.15082253141914   -2.08777652663908    0.11311396665051
H          -0.90814668987869   -1.38538679532323    0.99303646638661
O           0.45120606605259   -0.10227914536987   -2.18717529837460
H           1.32373642328066   -1.08570391126759   -1.31658806902773
H          -0.43701175119194   -0.45634498793296   -2.34950216847566
H           0.29945537916523    0.50813406114873   -1.43641151358360
N           2.70622656385046    0.66825624957093    0.52787209249572
H           2.47035820250045   -0.29452790399526    0.17532131956278
H           2.02980414603517    0.90731881440854    1.38568898773041
H           3.68713564286173    0.76323592428152    0.77172193632272
H           2.42132052964945    1.32892720201481   -0.19437094881319
