    26
        -50.45462531  Gyration_radius:  2.43339991737 Dipole_moment: 7.033
 S           0.39580926535343    1.73049903338008   -0.80866105359094
O           1.71457254115173    2.35254838562414   -0.54523438110686
O          -0.29508068427580    2.28426949716343   -1.94005673442757
O           0.53424985854710    0.28568429827447   -0.85749921782695
O          -0.41601435080706    2.04644765333848    0.50626450262420
O          -2.24960332238353   -1.44726239867737   -0.75432014231714
H          -3.19803129604213   -1.56947063633703   -0.81783537179488
O           1.13567208180618   -1.44561156753292    1.73876043370040
H           1.54369971043339   -2.15589944438140    2.23557604840013
O          -1.36385315287769   -0.15712702214082    1.45047061179481
H          -0.55628663608784   -0.63949262350948    1.68129865409623
H          -0.86768328720408    1.21420390288126    0.84261754264149
H          -1.73036962328460   -0.62452436129251    0.66967761876039
O           0.41074069624156   -2.31348284674125   -0.60524439765652
H           0.57706419036701   -1.40835397244138   -0.93201071844532
H           0.90629157938170   -1.83076117276738    0.84022715134798
H          -0.55438041146883   -2.38185777686792   -0.62438558246644
O          -1.68152966372438    0.18666109360693   -2.75348521791377
H          -2.00959087095346   -0.81808381010903   -1.48424048170740
H          -1.25735114575332    1.02389808163223   -2.45968959820229
H          -1.02992499141773   -0.23282887860033   -3.31923427934576
N           2.02009834096642    1.15973026186363    1.61950072530724
H           1.76006118025296    0.15726966297171    1.51447030747772
H           1.97810722234929    1.70627672170469    0.57599321197851
H           1.30175469404845    1.62292816311209    2.17177944968534
H           2.93157807537940    1.25433975584207    2.05526090898528
