    26
        -50.45556806  Gyration_radius:  2.43270579794 Dipole_moment: 7.581
 S          -0.47120169387598    1.84990791699652    0.18402869492864
O          -0.84750401362603    1.60096629825212   -1.19412214119454
O           0.71380748721923    2.71008111710947    0.29565359398104
O          -1.64975450816817    2.60358704053086    0.88760745662754
O          -0.23430923468812    0.62866292086707    0.94272153696839
O          -1.85082750462525   -2.04206930124821   -0.62640578063585
H          -2.45766821108736   -2.52658510150009   -1.18753984307953
O           2.24730135445899   -1.15463387163775   -0.42653241941657
H           2.89848011105465   -1.84895851327383   -0.53770050071655
O          -3.03007742379035    0.51039054434853   -0.08505854699894
H          -2.72679954380285   -0.40397066994704    0.03341411805184
H          -2.38614906088505    1.97125763701067    0.78570516023344
H          -2.47987969930615    0.85390778927396   -0.80505627767122
O           0.30067085083789   -1.93706423303717    1.07685520491287
H          -0.43746223106416   -2.32258266411887    0.57967664353756
H           1.50143221619991   -1.54623703824369    0.13264930467705
H           0.01707209738137   -1.00583920033535    1.18432591868260
O          -0.06540858708154   -0.75851421068858   -2.11302063637740
H           0.81602955523148   -0.85250480190077   -1.73099377464706
H          -1.21643084277980   -1.58531840212380   -1.23610484619326
H          -0.34523268364738    0.15449568547091   -1.89388784515047
N           2.38326520690804    1.01634503165679    1.15755949827599
H           3.29815502303524    1.36312699340022    1.42842139676612
H           1.85360949253256    0.66046638329349    1.95253584198420
H           1.72846719248346    1.82296679602368    0.74341226231880
H           2.44041465108358    0.23811585382157    0.45185598013468
