    26
        -50.45462543  Gyration_radius:  2.4333485169 Dipole_moment: 7.033
 S          -0.22212251873649    1.51126056512871    1.21391278172433
O           0.90252378854638    2.46217342875862    1.37640871167291
O          -1.48655693288466    2.01974378379623    1.66848887880115
O          -0.24903721541402    1.00937505632165   -0.14863115823835
O           0.20787362412067    0.29295178706287    2.11870582857695
O          -2.16322650349311   -1.59765755510667   -0.70062047315556
H          -2.85976855689642   -2.22176958331270   -0.49129829868620
O           1.95883222998125   -0.98690948905092   -1.26297510422150
H           2.55757958210578   -1.34215581805695   -1.92109447268075
O          -3.14591997399721    0.73523272073217    0.06193798551472
H          -2.59390796826478    1.18409827422966    0.74090357170529
H          -3.14309909383871    1.33163328543496   -0.68963369822083
H          -2.49807837774560   -0.71094330224253   -0.40425979539718
O           0.13007098289354   -1.86260471587405    0.70677855449639
H          -0.71840436470101   -1.80763088004539    0.21742849358217
H           0.81776017884807   -1.69486784284933    0.04567840811075
H           0.10040203642652   -0.56873878413795    1.61305848933994
O          -0.30237951102619   -0.34839514332882   -2.38201584714026
H          -0.37528724961160    0.35463121940280   -1.70810294774679
H           1.12184584336001   -0.73340058209308   -1.75642872328200
H          -0.97449994842752   -0.98837155536672   -2.10782362081704
N           2.62414987307107    0.77744029253193    0.74405392527736
H           2.31234713063786    0.24585359982206   -0.09486302416771
H           1.86407906898345    1.64519065974489    0.98618113904001
H           2.56721774975149    0.16397582742844    1.55399013165409
H           3.56760616631206    1.12988476107052    0.62022025425802
