    26
        -50.45556821  Gyration_radius:  2.43277774127 Dipole_moment: 7.578
 S          -0.70653914433073    1.55949853326681    0.86486116536207
O           0.33368036689244    2.56393268087707    1.12092194407849
O          -1.83847395848419    1.79546821169955    1.92076237667332
O          -1.28465101431991    1.68566623536476   -0.45910410213754
O          -0.15223360718346    0.23709073258447    1.12417075556087
O          -1.60034590828718   -2.07360317765361   -1.06162890301706
H          -2.21922391351312   -2.46898832406522   -1.67686182920957
O           2.28232941782553   -0.47402577164580   -1.06673834467070
H           3.00033929082208   -0.94894574225138   -1.48791824553974
O          -3.03653579810148   -0.12074687162519    0.46287515927422
H          -2.58079003127806   -0.94338745001144    0.22290294262491
H          -2.47577889509999    1.09078701478942    1.69782899882499
H          -2.68543399223501    0.53699611805300   -0.15630445984929
O           0.78486739851340   -2.07153469135666    0.29986704997010
H           0.38623554162210   -1.30093215106465    0.75431722720529
H           0.03635889511602   -2.42399463166824   -0.20621211358518
H           1.71947516382734   -1.16597744617081   -0.59069012699090
O          -0.33290422009454   -0.04983279280533   -2.22126533692498
H          -1.16502061343127   -1.32832369354631   -1.54922807800877
H          -0.70382557900760    0.66956812022966   -1.66923200034953
H           0.60745077774370   -0.07653385444215   -2.00514412928071
N           2.37008282501729    1.06329445620788    1.13998331872979
H           3.25512848184908    1.48484198281134    1.40390360066386
H           2.05199193173710    0.37348632843755    1.81990120194913
H           1.53651675941400    1.80808422124452    1.11035319735801
H           2.41729982498544    0.57811198273938    0.20767873128625
