    26
        -50.45556811  Gyration_radius:  2.43277230635 Dipole_moment: 7.582
 S          -0.71338738622074    1.23505807118598    1.28213845526597
O          -1.76357162986742    2.39398150809402    1.20354469826627
O          -0.06971054159349    1.15531880567748   -0.02266455191002
O           0.28975712615484    1.63382506057809    2.27774542191155
O          -1.40659300745753    0.01604955822383    1.65144689810951
O          -1.57162414883476   -1.38058181782210   -1.90146266471205
H          -2.21663006505828   -2.02420505360896   -2.19733953597371
O           2.20659382198871   -1.30066008669667   -0.07174627962159
H           2.91179578256769   -1.86455440832838   -0.39291977288645
O          -2.97619206618550    0.63521247977313   -0.43083650643881
H          -2.37888248853781    2.06605653020348    0.52069440665670
H          -2.49982300387522    0.18698284286207   -1.14792293135735
H          -2.71339815301942    0.15445984173341    0.36851768589239
O          -0.51447271702467   -2.14810827475467    0.40909299105259
H           0.44068440700407   -2.00909410206264    0.40158727738589
H          -0.87564048867871   -1.42615874946438    0.96434238758027
H          -1.21867593160907   -1.72010951612391   -1.03949176787756
O           0.91480320623082   -0.22150717291525   -2.02832945286274
H           1.72264845185029   -0.95159213712456   -0.88803511334869
H           0.14600488900475   -0.73957745557555   -2.31335468237103
H           0.51588251260180    0.41915095678863   -1.40409456879175
N           2.39791535506382    1.17886702255450    0.95576179698938
H           1.52575976133716    1.37295026429082    1.62842371145345
H           2.17698431246710    1.71159397672888    0.11517252842615
H           3.27813816073063    1.46495779032537    1.37293013336597
H           2.39163385095818    0.16168406545592    0.68679944579775
