    26
        -50.45556816  Gyration_radius:  2.43274897209 Dipole_moment: 7.580
 S           0.21752432089854    1.60748938283090    1.02321747913097
O          -0.58017248100933    2.08820598155826   -0.08830770821848
O           1.59887123940168    2.10391873873988    0.97873102743623
O          -0.41653526997721    2.14179850876738    2.35160203063455
O           0.24708469031435    0.15392028151964    1.12077403445708
O          -2.50568045665533   -1.17580078716197   -0.57216280641055
H          -3.36495581720901   -1.23606486926968   -0.99136987151822
O           1.55071985778129   -1.19232587400954   -1.65603301360719
H           1.88745571325831   -1.85711374813688   -2.25862760949654
O          -2.60652110017948    0.99956729746902    1.28704755884645
H          -2.59332516331393    0.09663687141048    0.93124201554017
H          -1.31518194481229    1.76284695580253    2.31585436281362
H          -2.19371391694353    1.53628625751709    0.59364974535878
O          -0.05549771034129   -2.23398986520346    0.07501244019278
H           0.01563808347125   -1.42364313711610    0.62049971048213
H          -0.98451539825365   -2.21595066817600   -0.20296280765744
H           0.90109009955446   -1.66371863018201   -1.04110370447126
O          -0.88008618178185    0.32234623590156   -2.04141794536687
H          -0.00673618509104   -0.08533915684290   -2.09393579702442
H          -1.95009156711491   -0.60536900162587   -1.16273433843686
H          -0.78047682020801    1.06464756572179   -1.40976578690996
N           2.80326351407908   -0.05324200714343    0.43547679776713
H           2.41317428183964   -0.41613678880318   -0.47174250750075
H           3.81824222391582   -0.03225857601271    0.44114536820888
H           2.35617222096702    0.95186600666803    0.63682582171444
H           2.42425377741592   -0.63857699422180    1.17908550403773
