    26
        -50.45556803  Gyration_radius:  2.43270989499 Dipole_moment: 7.582
 S          -0.63067787783292    1.73236209689454   -0.52828690549232
O           0.40964502438572    2.76010344565566   -0.39355433627845
O          -1.62852053599552    2.23455849868761   -1.62557536856406
O          -0.01785077677493    0.51228691442636   -1.03716909585154
O          -1.37069164843992    1.52834893298635    0.70206457240246
O          -1.67073800526272   -2.25930322989488    0.30082774470875
H          -2.35071028737018   -2.79153237675897    0.71577922846080
O           2.14333473013213   -0.74717892767518    1.18951031037647
H           2.81479661640511   -1.31878826482280    1.56489281883521
O          -2.95330486002924    0.02553614674361   -0.85351651418442
H          -2.69685860278619    0.50417047754416   -0.05073224517702
H          -2.27214440993904    1.50205407470310   -1.66673028728046
H          -2.51154541840062   -0.83482790725933   -0.77139271657200
O          -0.60223886998720   -0.60228022112905    2.07804748502452
H           0.35787415053977   -0.58228536536803    1.98039917004462
H          -0.91909727513847    0.23588344502943    1.68182934211253
H          -1.31579082873548   -1.66381425906180    1.00945305095552
O           0.86282920972296   -1.93801833746424   -0.70899556290260
H           0.50609972290293   -1.07434081955357   -1.00218933104493
H           1.65961177789830   -1.29262196883912    0.48899582700211
H           0.06576074802625   -2.39915217159606   -0.40443882114308
N           2.46789131688472    1.29595080488649   -0.53136851623867
H           2.25543862265995    0.80284319109396   -1.39790900593309
H           1.61894818422039    2.01569190531227   -0.42179678827001
H           2.40967428962484    0.59059526316111    0.24707599409409
H           3.36826499329204    1.76375865229567   -0.56522005908727
