    26
        -50.47166722  Gyration_radius:  2.38847806436 Dipole_moment: 3.169
 S          -0.55669033679692   -0.77578294668135   -1.05242378890066
O           0.26554461272441   -1.37983742421125   -0.00031033225075
O          -1.96282484821867   -0.79743047594573   -0.68040676859745
O          -0.10487379195542    0.57669262773685   -1.36179530020486
O          -0.38747256373829   -1.63373161521399   -2.33411725088551
O           1.49597233785484    0.58111657995070    1.35392921073399
H           2.05135743599903    1.02037607069594    0.69971090928604
H           1.11093367027624   -0.18013925066703    0.87972302249250
O          -1.88361985783083    2.04258609016631   -0.04019968637347
H          -1.18865030836285    1.63599104066752   -0.59529553550137
H          -2.67934476887045    1.55007071928459   -0.25462967653423
O           2.46113830814169    1.06501148049239   -1.33846543449837
H           2.67426548962010    1.77807807227724   -1.94206230048743
H           1.48085235248134    0.96379514703848   -1.36667174325704
O          -0.85853466092442    1.37660793133223    2.32281814734325
H          -1.34050252509362    0.00795476699372    2.18561857401178
H           0.09237248598895    1.26170267424360    2.09469380542713
H          -1.26126236735621    1.81453195618713    1.53637047377784
O           2.18742076472233   -1.62373063039874   -1.89818454818587
H           0.59540726749062   -1.71649840963477   -2.41903025806327
H           2.52370944742882   -0.71073357444091   -1.84115509756852
H           1.87609525920644   -1.82655209429027   -1.00505124671796
N          -1.61126144275013   -1.02885042465078    1.88068366805882
H          -1.95749984638010   -0.96549038998696    0.87683476398476
H          -2.27931777648617   -1.47195796886257    2.50231490108225
H          -0.74321431716679   -1.56377993209178    1.79710151182376
