    26
        -50.45556817  Gyration_radius:  2.43276909464 Dipole_moment: 7.580
 S           0.07372329401903    1.00423762676120    1.63242412537318
O           0.22899781837695    1.11977499939437    0.18820132488415
O           1.40689540600001    0.95688606221803    2.24640964417482
O          -0.60904771369182    2.32431140470636    2.12553906308130
O          -0.75882950159468   -0.11509478856197    2.02858906247122
O          -2.39210705058133   -0.56322032810812   -1.39611839593051
H          -3.24177519955141   -0.98332203929944   -1.53543127004779
O           1.65405051596325   -1.63822492341585   -1.07245481927591
H           2.04938161838392   -2.23198098302366   -1.71248969566509
O          -2.68777651886578    1.26862004403966    0.78489172843955
H          -1.47128029447347    2.29089424744818    1.66955803243685
H          -2.59478027797171    0.92425066006429   -0.11778723950109
H          -2.32075678576841    0.56959638414481    1.34693313513720
O          -0.89813773268680   -2.04723135684544    0.22007004943477
H          -1.88633090066616   -1.15958900999739   -0.78679884418186
H           0.00756306173539   -2.09307161061863   -0.11054995336736
H          -0.86541751451739   -1.42443762939536    0.97567906884717
O           0.13889422210216    0.10199183076984   -2.22912758269881
H           1.04590242807941   -1.01913074924403   -1.59122999055371
H          -0.78723736245978   -0.17822289877904   -2.29537852619477
H           0.13754200270269    0.63775225443029   -1.40924998272269
N           2.79561249379343    0.44263720046668    0.19554365709699
H           2.46565210477952    1.19213991070163   -0.41161696873217
H           2.26249898533772    0.63067102491500    1.16046559387616
H           2.44181233846100   -0.46122255436757   -0.21034486894147
H           3.80495056310039    0.45098523159105    0.30427364256191
