    26
        -50.45556803  Gyration_radius:  2.43271317793 Dipole_moment: 7.581
 S          -0.41226346217857    1.74895958870073    0.67019350991367
O           0.79985498433653    2.52537915627770    0.96106209142031
O          -0.83129859543207    1.87308886189394   -0.71255370834604
O          -0.19129572068007    0.36826551488227    1.08004600537756
O          -1.54957752171728    2.31998052325000    1.58253040204255
O          -1.92544300854625   -1.76994247815770   -1.07062178880102
H          -2.56085937929373   -2.07926740839833   -1.71742810470360
O           2.20091511442580   -1.05333591511496   -0.78323178447835
H           2.82827059339875   -1.70915918760366   -1.09117313581675
O          -3.01531841148732    0.58030762725216    0.14864799492688
H          -2.30652480393495    1.75154476070044    1.34501080852728
H          -2.47428676443994    1.08638368311088   -0.47625159548125
H          -2.73571614319090   -0.33991269950452    0.01769532239415
O           0.27204387883928   -2.15579902887757    0.53057654321733
H           1.45875993275054   -1.56003357150039   -0.31988449003945
H           0.01871962767106   -1.27814159355457    0.88372005171337
H          -0.48984309398992   -2.38383129544545   -0.02465648829302
O          -0.14222008469190   -0.18468590706168   -2.23377823381152
H          -0.38938515881995    0.64638017465506   -1.77755156978679
H           0.74575492726598   -0.39329175709091   -1.91798088725563
H          -1.29392622336617   -1.18491626477118   -1.56222984482977
N           2.44132785770655    0.63097632337959    1.30158123506527
H           2.45727630728717    0.06065597794354    0.41762607809514
H           1.79959113538353    1.53092196940404    1.13126718505324
H           1.92273670027984    0.09297263892323    1.99498543131369
H           3.37270731241219    0.87650033670155    1.62239898257770
