    26
        -50.46278517  Gyration_radius:  2.54825662062 Dipole_moment: 6.691
 S          -0.67836595751547   -0.88601324662434    0.54228702518997
O          -0.08996179084170   -0.70241480404580    1.85336411728262
O           0.10907468042401   -1.77619659689715   -0.31753644432016
O          -2.06278769573925   -1.56645118593068    0.70503560347019
O          -0.89786391212388    0.38966964541621   -0.14485525113752
O           2.38669743945080   -0.85648616812365    0.96669813331164
H           2.18293785139574   -1.63945166493581    0.44717224402122
H           1.56115398602089   -0.70177197969399    1.46940924275223
O           2.88071088306323    1.25557525860953   -0.57705484869220
H           2.73953266532337    0.46264290423774   -0.00579107982716
H           3.18060252493722    1.94902800727769    0.01243758801737
O          -2.51354046045413    1.87981749276478    1.33716827008705
H          -1.86177430631566    1.40605171264171    0.77683850709964
H          -3.24603397539930    2.10615573564509    0.76170699136703
O           0.63162635987581    1.53558260656538   -1.95053444687752
H           0.68802661986966    0.18867735390882   -2.49242996508402
H          -0.01799483578462    1.31280575064313   -1.24727104527355
H           1.49877424826253    1.59121763283378   -1.48224552264778
O          -2.54060918436094   -0.31585317579954    2.89214012155471
H          -2.68320645937539    0.58300608025649    2.52980623636196
H          -2.41552789584149   -1.18176103217317    1.56117484688171
H          -1.58183885620338   -0.38346241235218    3.01826541289233
N           0.69110441790792   -0.91194841514796   -2.66566661293522
H           1.61713427385151   -1.23393032754544   -2.92817988765835
H           0.00576591913125   -1.18144106430020   -3.36305685089457
H           0.41636346105260   -1.32304810729566   -1.69888236488054
