    26
        -50.45556810  Gyration_radius:  2.43271901546 Dipole_moment: 7.580
 S           0.37860329745701    1.81799746638899    0.47929505449026
O           1.82190366385357    2.08625623965112    0.51860528422288
O          -0.18075099818841    1.98851978004665   -0.84775123765368
O           0.13475969144432    0.49453543802087    1.03797272511088
O          -0.30365812040726    2.85138540268176    1.43771732036400
O          -2.58919098268202   -0.96582556609785   -0.59109722329707
H          -3.38902802789497   -1.05387123301827   -1.11098676996396
O           1.49775333607676   -1.87692443074087   -0.89581933770724
H           1.77910842363636   -2.74529520042762   -1.18783194687694
O          -2.51953951694312    1.70816068672214    0.43052990515279
H          -2.62579423404859    0.74426687732171    0.38922767452297
H          -1.24491865378786    2.60273538058755    1.36919714489737
H          -1.93737273023966    1.91721230022112   -0.31558014147501
O          -0.46447627366773   -2.04666746592735    0.77237096403616
H           0.70540933391320   -2.02137652298233   -0.28463757717717
H          -0.31456217747442   -1.11511473956854    1.03487317494567
H          -1.33517051251286   -2.00482334379038    0.34710510853311
O          -0.55713917091325   -0.28456119883228   -2.15718915055596
H          -0.40197549688078    0.60950020867313   -1.78773480049595
H           0.22866874692888   -0.79496437214745   -1.92536382403837
H          -1.87360332923332   -0.70893236881125   -1.22724830652841
N           2.67572734813725   -0.26309913406024    0.90665020109299
H           2.33778587311723   -0.86063763240465    0.10939826416934
H           2.39529063526430    0.79904839515955    0.69729628179341
H           2.11215922595389   -0.50488872240015    1.72098780486938
H           3.67001064908730   -0.37263627426966    1.08001339756780
