    26
        -50.45556815  Gyration_radius:  2.43273927098 Dipole_moment: 7.579
 S          -0.60853978795858    0.82290502072663    1.62203914677591
O           0.13881356239350    1.07905511388993    0.39767474161079
O          -1.42367911842840    2.12153636962176    1.93994644834589
O          -1.54009135560506   -0.28184689123839    1.50071078874911
O           0.34406136746108    0.63526271000708    2.72381309731493
O          -1.59132040700147   -0.27589547501064   -2.31900577597135
H          -2.30769897683796   -0.62959979437225   -2.84773568416168
O           1.93675600734409   -1.60997147445251   -0.47532960904327
H           2.55851515852789   -2.15568549106801   -0.95915424871972
O          -2.75834308678900    1.33272822650294   -0.25736803606199
H          -2.01582985609287    2.18519191464386    1.16677129131972
H          -2.29834588642162    1.07951553021329   -1.07365745262158
H          -2.66691262157402    0.55895656348852    0.31902122203667
O          -0.92533819208390   -2.00401730684043   -0.41742819937414
H          -1.39280169163607   -0.96058427816226   -1.63012683244091
H           0.03515353128450   -2.06707386023994   -0.34522013263196
H          -1.20681255493358   -1.46624253701590    0.35165301683882
O           1.06131299484673    0.32581528530684   -1.94092795510599
H           0.72129747055127    0.77255093823268   -1.13840495642311
H           1.60750249631835   -0.90599746458268   -1.12208740336429
H           0.24561502667217    0.10781960973975   -2.41831060964648
N           2.46000075032035    0.25761260402305    1.38992954447241
H           3.33068134327169    0.19591318709666    1.90836388525160
H           2.42205491048244    1.08418882314688    0.79445911961968
H           2.30085908373742   -0.57695290054508    0.76941861718477
H           1.57308982215210    0.37481556689304    2.06095594604347
