    26
        -50.45282982  Gyration_radius:  2.46182951127 Dipole_moment: 7.471
 S           0.42937400386701   -0.20678965901918    2.11364991283691
O           1.59756549351983    0.53797884189618    2.54417445749182
O          -0.18176968788298   -1.10645815035846    3.04495607391229
O          -0.56528910691636    0.72058719976682    1.50975550935655
O           0.95510020286001   -1.07207143520327    0.88271847602559
O          -1.67650435461262   -1.64081613514282   -1.39316695048444
H          -2.03357428032063   -2.29412535326409   -1.99607349346665
O           0.73094966620957    1.64174978961372   -1.87558463093414
H           0.64189174435338    2.17135946145553   -2.66872125999030
O          -0.95725595592126   -2.77698423236509    1.06544520022115
H          -1.07852845198488   -2.34358512963065    1.92630288986152
H          -1.52862219426310   -2.34748146256122    0.40843356023189
H           0.34839588764579   -1.86539015693751    0.88447399546803
O           0.90400733559189   -1.14793970391756   -1.87654087520076
H           0.97125784520898   -0.19684512858047   -2.05584921827344
H           1.20078796444828   -1.24876050927730   -0.96045508562459
H          -0.71669571152905   -1.55105719797076   -1.61999748384960
O          -1.61825681846712    1.05560628244161   -0.92949792691803
H          -1.41041722861490    0.95693959371938    0.01969083235544
H          -0.20521376047180    1.44826420790463   -1.55977706712681
H          -1.85228459188685    0.15547335539720   -1.21217681705110
N           1.24446219746080    2.27218069233330    0.72073425945807
H           1.37505198006883    2.09178289760542   -0.29116238894129
H           0.29108651657311    1.82767618103641    1.00291369080574
H           1.81642065284808    1.66138998923822    1.36676862063120
H           1.31806065221158    3.25731576182012    0.94898571920657
