    26
        -50.45282963  Gyration_radius:  2.46193200037 Dipole_moment: 7.474
 S           1.77975928640529    0.72910421299182   -0.99864062781250
O           0.29653071089077    0.57264239268825   -1.56034197111626
O           1.66012575132712    0.39351995464892    0.44638241108326
O           2.52681499167173   -0.30843533370044   -1.68383138218165
O           2.17529846383566    2.09116726377276   -1.19492048203845
O          -2.02460814094212    1.59816132672908    0.88886891658060
H          -2.86813881472942    2.03845562017203    0.99990748957013
O          -0.88184053705854   -2.33532539310479    0.72119344538238
H          -1.33663148613362   -2.97658799135073    1.26836999903600
O          -0.36625849877277    2.96690144444600   -0.90883200580566
H           0.59542125158235    3.05903457276871   -0.80705768606619
H          -0.08142797209337    1.49250600670651   -1.46854172533660
H          -0.75637035735643    2.72688763136820   -0.05286477229014
O          -2.17913897630280   -0.42251055502880   -0.85148821047908
H          -1.89385628881838   -1.21712278136451   -0.37360052866827
H          -2.16739946563324    0.89584543212948    0.20546281155730
H          -1.41076347704852   -0.16174547621574   -1.37975344558323
O          -0.35739254503956   -0.19843422059167    2.10545047220951
H           0.43942090819570    0.12448637682269    1.64227561991242
H          -1.03090450555300    0.47410461908051    1.90798063065462
H          -0.70855063638711   -1.53651112671102    1.30895216289357
N           1.71646552947178   -2.06899687307316   -0.03906868072693
H           2.01212610208083   -1.70682756210093   -0.98654020683564
H           0.73963221541576   -2.40923098419148    0.02062179171456
H           2.37918191390306   -2.73051696735073    0.34972632692779
H           1.74250458708890   -1.09057159954160    0.44028964741744
