    26
        -50.46278512  Gyration_radius:  2.5485231568 Dipole_moment: 6.696
 S           1.01383367057347    0.71138899075338   -0.01332212592142
O           2.01901604679616    1.57835344417002    0.78920006968275
O           0.65688465677061    1.41334912876456   -1.22930900653915
O           1.69459924765227   -0.56276976725438   -0.26767277845059
O          -0.14839902383248    0.48138799779490    0.84927314863738
O          -1.93456791690347   -2.01441310771375   -1.55802894530482
H          -2.69518187695623   -1.63150771837745   -1.99736413312545
H          -1.14525724090453   -1.59105649948424   -1.97381705794392
O           0.19740436502690   -0.79738210159700   -2.58766731942432
H           0.24498101582321    0.11722069568455   -2.24216573855811
H           1.01701809654051   -1.19139893304232   -2.27550765027160
O          -1.20870059944856    2.82773885617284    1.48110962405235
H          -1.22238827349971    2.84784707411734    2.43940085321948
H          -0.90538317171707    1.92856038230048    1.23084398009652
O           0.88149167469525    3.75967723256874    0.06578314180703
H           0.05778727193893    3.68657077708829    0.59089297894672
H           1.71732839747166    2.51740509298820    0.60876954266192
H           0.69948614210779    3.27136382535606   -0.75168581272073
O          -1.59704735640600   -1.70315432109508    1.05152985306834
H          -1.23477328877223   -0.78933219360493    1.06072930386495
H          -1.88173234087000   -1.85030648759309    0.11775011655176
H          -0.29621661421521   -2.34847078922600    1.06043099905990
N           0.77283219052096   -2.63749852298346    0.93478703359736
H           0.86006603702568   -3.44957677463516    0.33229051399492
H           1.22130720214501   -2.80371841307979    1.82917827420118
H           1.21561169841502   -1.77027787810474    0.45457111479932
