    26
        -50.45282966  Gyration_radius:  2.46190876285 Dipole_moment: 7.475
 S          -0.25150634288228    1.86739658747693   -1.07039287901557
O           0.97245575692383    2.36077910405325   -1.67256919031268
O          -1.47835610478198    2.53590354282956   -1.38371022372623
O          -0.36898711966753    0.37038850754811   -1.60426394774541
O          -0.06581459054062    1.71758343524746    0.39855741328236
O          -2.05819643069383   -1.61763418225251    0.76804673541208
H          -2.67449119553037   -2.34648500218270    0.84987624551978
O           2.02866793141206   -1.33615299590113    0.92203292911737
H           2.51250722433879   -1.90173471188173    1.52489836416009
O          -2.89412175738767    0.24437084391710   -1.15255651697042
H          -2.78808927747161    1.20614388190174   -1.06653796722194
H          -1.35254171039844    0.19756186822143   -1.58753456488352
H          -2.81246748673522   -0.16554202835499   -0.27628446739080
O          -0.05193375670452   -0.33628372547137    2.11728685080301
H          -0.83411919779904   -0.85752787557734    1.86935938848001
H           1.24051949502931   -0.98256624406040    1.43918897877412
H          -0.15977791840997    0.49860716737089    1.62218493914605
O           0.01651180252314   -2.24069153489138   -0.79479798014699
H           0.81253066865939   -2.11723751563969   -0.25411955664088
H          -1.34963039006185   -1.92331397694840    0.14736927554199
H          -0.03151482474517   -1.44847923917686   -1.34940528710119
N           2.38299038020857    1.23927396220447    0.12018215568214
H           3.13726376792246    1.75671000915232    0.55764031585775
H           2.50180021135505    0.21448243810731    0.21599789642635
H           1.39750533498895    1.48391028064056    0.51607956253078
H           2.16879554044313    1.58053741366481   -0.85652848957986
