    26
        -50.45462517  Gyration_radius:  2.43347434947 Dipole_moment: 7.032
 S          -0.35231256978161    1.90526178999642   -0.22293462197363
O           0.57012580502605    1.49474672814709   -1.43472845330273
O          -1.57974821360912    2.45883852812144   -0.72394794262020
O          -0.53376269389135    0.70173379701697    0.56924986472721
O           0.48541435599797    2.87473428495401    0.52145279078524
O          -1.75985233903778   -1.90448852441785   -1.00191821019552
H          -2.20538596130282   -2.35210873810103   -1.72279196737074
O           1.83715803404265   -1.34577693799750    1.10155118408181
H           2.35588392876065   -1.96060021196298    1.62187070073675
O          -3.14148642422741    0.32723878514244   -0.68502390611819
H          -3.45599420580920    0.36916878126314    0.22050362566244
H          -2.59707375974233    1.13818678600299   -0.79963425547680
H          -2.24726433000116   -1.04878216847497   -0.87396210183863
O          -0.69561513041845   -1.70312397866945    1.58209160015206
H           0.87839251242913   -1.51064226141304    1.35040773006918
H          -0.80854136606593   -0.74974054183524    1.40333735661111
H          -1.10034180994348   -2.12264914296813    0.80961855371864
O           0.76507689890542   -1.07495098439550   -1.50003589249321
H          -0.15109760012554   -1.39772055105113   -1.36293039357251
H           0.58835884116011    0.49477344813618   -1.53258511013424
H           1.22825333665854   -1.26034332517185   -0.66982061234320
N           2.41906969287236    1.31419994447497    0.68824014310451
H           2.08906964868918    0.36480073253658    0.95886578987874
H           2.70323338725077    1.29041276639329   -0.28861328866735
H           1.52407914213221    2.08144158767578    0.70912251192161
H           3.18436082003136    1.61538942659879    1.28261492465875
