    26
        -50.45282960  Gyration_radius:  2.46193225115 Dipole_moment: 7.474
 S          -0.90786794343027    1.52515031246940    1.24410820835845
O           0.00833154770984    2.11309697240286    2.20272874773712
O          -0.38410300906589    1.71554224145891   -0.13588261126605
O          -0.77951872572213   -0.04304002388680    1.49787541251663
O          -2.29560306172898    1.86587006277204    1.33553068539860
O          -1.40509412806608   -1.79436351508928   -1.49841663560675
H          -1.80065466467626   -2.59672490036994   -1.84119369928463
O           2.43569705841313   -0.70169815401148   -0.57382655771782
H           3.15560331288198   -1.02932826344413   -1.11401253557011
O          -3.04673739653875   -0.56036003469049    0.40783965593147
H          -1.66754751872571   -0.39560159724796    1.20712963059790
H          -3.15532462583058    0.40071474439692    0.49788049740813
H          -2.68472000250397   -0.75991261371216   -0.47067042223341
O           0.37692254355047   -2.30781004643304    0.42373569007023
H           1.21726304828210   -1.92494826520616    0.12628130693872
H           0.02598892799687   -1.66964848723981    1.06184675195533
H          -0.79277431550621   -2.07641714209055   -0.77290854650801
O           0.48043332476027    0.09878736147881   -2.08844729363890
H          -0.19039590880995   -0.60359290041665   -2.12806553431482
H           0.07537962935778    0.77795766786604   -1.51540432303088
H           1.71474588256934   -0.40939731469007   -1.21288828247483
N           1.99163241802124    1.67464479837052    0.67423177445915
H           2.36778013917216    0.73402762184507    0.45702093096345
H           1.08290119117804    1.79845075376476    0.08520325559667
H           1.50100289133393    1.76162888073798    1.60578781236134
H           2.67665937537975    2.40697187096480    0.52451609135127
