    26
        -50.45282952  Gyration_radius:  2.4619495045 Dipole_moment: 7.475
 S          -0.02785379197903    1.73851723590865    1.29441778360069
O           1.19119495118097    1.91021563564075    2.06154699048731
O           0.28868612281790    1.73130668533524   -0.15981963969206
O          -0.47263401809543    0.23993232844594    1.60498478000237
O          -1.14053915926385    2.58996169305314    1.58988731582944
O          -2.21754992450995   -1.08530498372419   -1.15902319383368
H          -2.94318952725913   -1.66593864322048   -1.39156707117990
O           1.84381095159921   -1.58320811289268   -0.92144315496047
H           2.27983313165647   -2.15656442420307   -1.55277929092735
O          -2.91189198954957    0.65993779562055    0.92012415601664
H          -1.46312508033580    0.26434576398858    1.47874872399170
H          -2.62527473465964    1.58633591628069    0.97693667934310
H          -2.80752823295386    0.34879021359915    0.00635674100514
O          -0.47503293639300   -2.27892888225428    0.47560608453559
H          -1.64828277060211   -1.59376677445767   -0.52792709568983
H           0.38502077567859   -2.24749819962188    0.02772494701516
H          -0.44071112705495   -1.56452006829939    1.12832685037685
O           0.12313676127089   -0.06341673647764   -2.14125320038813
H          -0.76267056781210   -0.44985428164695   -2.03649465200568
H           0.11318136514745    0.71072732928797   -1.54598973971023
H           1.19487156226865   -1.02423434169066   -1.45058066162490
N           2.56530686029470    0.75982428518936    0.25840955721884
H           2.50837735712352   -0.24956005223780    0.03205184135641
H           2.31076289097091    1.01599128888010    1.25113066978256
H           3.44334536216506    1.17157603352024   -0.03742771107515
H           1.68875575829490    1.23533329597604   -0.18194770947165
