    26
        -50.45282977  Gyration_radius:  2.46189817407 Dipole_moment: 7.474
 S           1.18951946189164    0.62264466748349   -1.70080104367888
O           1.93717704897746    1.84414001938076   -1.46976404656560
O          -0.30843201126702    1.00785460296597   -1.31602389821330
O           1.16985268419063    0.08045346289099   -3.02589456576808
O           1.57355965684163   -0.40182093154667   -0.69213846525452
O          -0.04704076316310    0.59042024529067    2.52936083409923
H          -0.15766733077026    0.43969305136826    3.46879724923111
O          -2.01052928769133   -1.84034363660474   -0.12422922556778
H          -2.86730123321782   -2.26898657247530   -0.11972608187710
O           0.31778754410310   -1.67231249213530    1.30314656089213
H           0.08833369228709   -0.31620237762992    2.11295554371493
H          -0.52593707854073   -1.95370541786630    0.91078232789333
H           0.84657783450334   -1.37824708360842    0.53650445569042
O          -1.31733081931375   -0.92088377036162   -2.67980442856556
H          -1.37646527582537   -1.54134451345662   -1.93547179319920
H          -0.85555382288183    0.38440209540364   -1.87223225256592
H          -0.41882614181857   -0.94844153852858   -3.04810749135769
O          -2.16270965263178    0.69450283016029    0.70505281296067
H          -1.56937752917094    0.76794311055747    1.46906787711819
H          -1.66401057632501    1.07365141166077   -0.03321883437318
H          -2.16853848303284   -0.90429695715229    0.15777567864226
N           2.08145325668013    1.36191050872379    1.02140275252883
H           1.99713843896001    1.97853301620738    0.16718135560046
H           2.00728181382961    0.42945014427350    0.46322332408684
H           2.96665091755355    1.47994644010249    1.50151062077995
H           1.27438764583561    1.39103968490214    1.67065070375172
