    26
        -50.45282966  Gyration_radius:  2.46191172364 Dipole_moment: 7.474
 S          -0.71298099619262    1.73430382859169    1.08637905969113
O          -2.06640601516836    2.17929282586419    1.22968960103854
O           0.30987876585778    2.37738455204262    1.88904779957066
O          -0.65759022044629    0.20756558998363    1.54014699980204
O          -0.29081738511889    1.70645659852867   -0.34045195834963
O          -1.62493733969212   -1.87314941242655   -1.13695337078392
H          -2.09298840417383   -2.68410567182688   -1.33956471571055
O           2.33569885702962   -0.93808851925734   -0.64472656477806
H           2.98979502167848   -1.38219167502648   -1.18548062441250
O          -3.03223957380017   -0.28904743113600    0.69725647539047
H          -3.07601850711085    0.68081632039551    0.66402861523624
H          -2.75536439075652   -0.62610083521228   -0.17010014739457
H          -1.58553433054342   -0.11749618165732    1.36437163123063
O           0.27164237494773   -2.25404903712931    0.70507224724126
H           0.01140896614774   -1.51506052477418    1.27400723588145
H          -0.97451400315032   -2.10001148526784   -0.42545311155018
H           1.10680478204266   -1.97281851655962    0.29934642746055
O           0.31677119746301   -0.20912415969077   -2.11103558371706
H           0.00012505139726    0.56597494351509   -1.60832988961074
H           1.58457770743689   -0.68277107526164   -1.26462212075787
H          -0.39575051500999   -0.86212596124920   -2.00684194812274
N           2.13538420128627    1.60634016109011    0.29692415579718
H           1.72623828767833    1.84813739684586    1.24053808185365
H           1.19196868241975    1.71558149776667   -0.23774486578783
H           2.84920587873998    2.26302943285720    0.00158836741686
H           2.43564190703748    0.62125731898983    0.18290820336374
