    26
        -50.45282981  Gyration_radius:  2.46181224111 Dipole_moment: 7.471
 S          -0.68349268608351    0.62241062827609    1.95909687511380
O          -1.35221501980638    0.85361573584800    0.53090082630815
O          -1.65367749169066   -0.02270194433906    2.79140026680107
O           0.47871250661639   -0.26347679822824    1.67910955685453
O          -0.21517354529996    1.94003938896770    2.34545852167240
O          -1.07244362432364   -2.07431306777903   -1.41158895963171
H          -1.53443310510036   -2.60158782887744   -2.06450026697804
O           1.86052388788579    0.78270650830733   -1.63531009705921
H           2.54553408940751    0.69584627925249   -2.29915702039181
O          -2.76736323659429   -1.28490355308595    0.67575371489312
H          -2.50126015130180   -1.23405973148216    1.60862866016964
H          -2.03489277268881    0.12667219915720    0.47703477459179
H          -2.13796820574807   -1.84583695371422    0.19427772078501
O           1.44070210609969   -1.51095927729896   -0.48628606190368
H           0.65819204207439   -1.92344344445284   -0.88931112961108
H           1.74418907011747   -0.13146076817610   -1.22991590564400
H           1.12593122046656   -1.21781296778838    0.39056941041852
O          -0.86838492086096    0.48139423138530   -2.16137095648507
H          -1.07795000258751   -1.14474560206785   -1.75307778128360
H          -1.19121437779827    0.85766212224821   -1.32968117586593
H           0.07950138304789    0.68763615836626   -2.17539076294271
N           1.88074936441108    1.68134243501469    0.93251911122347
H           2.77948746073926    1.94490283517267    1.32081328427129
H           1.53077509387512    0.70450574394562    1.26283596531563
H           1.07740242713333    2.21089668523836    1.37066340901703
H           1.88876849801055    1.66567095611038   -0.10347194963870
