    26
        -50.45282967  Gyration_radius:  2.46190269541 Dipole_moment: 7.475
 S          -0.17967984205827    1.89897246223934    1.02844728687481
O           1.01675414350874    2.71555831804844    0.95228457694250
O          -0.49770716776015    1.53645362116815   -0.49060522176272
O           0.14321900667838    0.58895245714076    1.65648838861816
O          -1.36162225325576    2.47912363297944    1.59119943505324
O          -2.11365558434661   -1.59348378988842   -0.66079673311340
H          -2.78638541359873   -2.07704185240627   -1.14178345993730
O           1.97470733018502   -1.42281766433839   -0.90909643593448
H           2.46182503485293   -2.21758868535124   -1.12937696543743
O          -2.96148834168300    0.99650076961649   -0.00577578819880
H          -2.75354603289090    1.44720527864918    0.82926437505367
H          -1.48609600070753    1.39328673288694   -0.48988993613439
H          -2.82834936514684    0.04128243396158    0.10525494505629
O           0.13810453149619   -1.96454586521114    0.84880972514624
H           1.28307620856498   -1.69577595853666   -0.23024347526768
H           0.06042289200819   -1.10150448112729    1.29924090653799
H          -0.71270071086602   -2.06575895866297    0.38964999561604
O          -0.28492549634806   -0.53938560157325   -2.29795465364798
H          -1.50733203986535   -1.21042460056815   -1.34368780735675
H          -0.31377895058043    0.35275542480659   -1.92276527787089
H           0.57168012364155   -0.89881970493195   -2.01832258825786
N           2.49163076321661    0.65323324617361    0.77089220078756
H           2.21049014734384    1.65118652767580    0.56738256977088
H           3.33427885440038    0.59204491575056    1.33140934718334
H           1.58156409700235    0.41677574443921    1.32168755650136
H           2.51951405620840    0.02381560705987   -0.05171300622187
