    26
        -50.46278471  Gyration_radius:  2.54815470462 Dipole_moment: 6.689
 S          -0.99561377814482   -0.00989390164036    0.73448718919666
O          -0.79633924543307   -1.36848458859413    1.19645382275287
O          -1.72308925936155    0.06065872995838   -0.53741421785843
O          -1.87065315050523    0.74765290106049    1.76738787763756
O           0.26896849932768    0.72122130984155    0.61566689569670
O          -0.55976279436690   -2.35426275416633   -1.23644698450298
H          -1.33225131243966   -1.86653979890552   -1.53646714089479
H          -0.54590628550403   -2.17824419307690   -0.27376629634055
O           1.67704728602447   -1.41191727703559   -2.32983059273740
H           2.37617663200624   -2.00722461076041   -2.05585106550654
H           0.84375754304441   -1.79014628141819   -1.95863551198544
O           1.43988547089390    0.76947261800262    2.99365483485598
H           1.09151311933210    0.72923050615357    2.07702564957733
H           1.59093195556510    1.69727959838622    3.18140509021017
O           1.70079618778514    1.12076686818133   -1.55297322161539
H           1.35767359855874    1.01234176469457   -0.63823241442794
H           1.85194722853795    0.19953022216790   -1.87448992527935
H           0.40329983878359    1.42177927759672   -2.13165068177722
O          -0.81192704678868   -0.49977028318317    3.74177892041434
H           0.07462208631053   -0.08334375856272    3.73103823292873
H          -1.58350373828613    0.36297275410957    2.64777044005141
H          -0.74974857744606   -1.23284915658196    3.11045094467614
N          -0.67757312747352    1.49747270869533   -2.39256322328399
H          -1.16850739493818    0.92599648492028   -1.61062203595713
H          -0.86283517795579    1.07709098292599   -3.29754003700765
H          -0.99890857751836    2.45920984724816   -2.37063654881273
