    26
        -50.45282961  Gyration_radius:  2.46193675667 Dipole_moment: 7.475
 S          -0.50169548890772    1.40084600853407    1.57597021160412
O          -0.71582925717138   -0.17742483481078    1.51906662137929
O           0.55555043287697    1.57770551055414    2.55319022549946
O           0.00199305588123    1.74993723871054    0.21973403691010
O          -1.77499837215577    2.00080724147554    1.83863507199655
O          -1.82074375129142   -1.11970417639979   -1.69455625813551
H          -2.39603158190742   -1.73511144634272   -2.15072107251612
O           2.19699820025904   -1.06993859833606   -0.88407925383168
H           2.80697260255061   -1.42640849845692   -1.53083580761524
O          -3.07874835559208    0.02431601625219    0.53310479254904
H          -1.66976192960171   -0.26916314359501    1.23782161869687
H          -2.96795759475395    0.94853444357093    0.81085121113675
H          -2.80197408310061   -0.06614888334406   -0.39308237548505
O          -0.13092444501271   -2.37276031611372   -0.04891681978751
H          -0.30846791715859   -1.81628762448882    0.72334951574967
H          -1.26129937228399   -1.66430922796590   -1.08521629084045
H           0.76253141638257   -2.12412364066043   -0.33378737761671
O           0.41639652008347    0.41210730654356   -2.06332351084092
H           1.53686244087053   -0.51015246025127   -1.39839514892566
H          -0.39470638868323   -0.11046074017100   -2.18174998633410
H           0.19276267104513    1.03238489414803   -1.34288690143539
N           2.33657269148114    1.04735781179124    0.81855827226332
H           2.48626370154703    0.11169693012146    0.39945658037906
H           1.91088877008271    1.04704830973398    1.78543255806507
H           3.16151040860638    1.63348908836905    0.75584994762262
H           1.45783564595578    1.47576279113206    0.33653016951263
