    26
        -50.45282958  Gyration_radius:  2.46190405011 Dipole_moment: 7.475
 S          -0.07827402352450    2.15943012362499   -0.16537940633282
O           0.05407286052056    2.84439842461581    1.10633770967440
O          -1.26119494843775    1.11925001778058    0.07681693925745
O          -0.41403931575631    2.93489191018651   -1.32131242849901
O           1.11628678887422    1.30449248586761   -0.40417370014469
O          -0.79503271975251   -1.71867310381103   -1.96335800670758
H          -1.27062023004591   -2.37380380527698   -2.47557916500859
O           0.77908990906178   -1.68163882718311    1.82121809111591
H           1.16244081472412   -2.48520213664135    2.17440061329936
O          -1.76173140728545    0.87000248965680   -2.42988525785093
H          -1.20974393579596    0.08160024021529   -2.55769746465694
H          -1.64537489386682    0.99226082745122   -0.83631906522098
H          -1.20282680386806    1.66292055944728   -2.48059340926804
O          -1.70424370903797   -1.56541704040488    0.54343832183366
H          -1.80099829420471   -0.60214318187520    0.55854517742040
H          -1.22066745796272   -1.70484213174994   -1.06922959828287
H          -0.94600129906403   -1.74779801307076    1.12054585646866
O           1.56302173396844   -1.32634297794455   -0.63157623728182
H           0.86185402802807   -1.63417589923075   -1.23037556213200
H           1.51600232951272   -0.35296948742266   -0.69606377467734
H           1.11700826028705   -1.60038605116294    0.87625536255997
N           1.44958841242700    0.94436689728556    2.05783243113763
H           1.08321504201412    0.00005735945857    2.27586665132411
H           1.57253870736534    0.99639243205722    0.97599089470248
H           0.73999137287622    1.72576628640487    2.09996926811041
H           2.29563878894760    1.15756259172750    2.57432575916062
