    26
        -50.47350524  Gyration_radius:  2.40656089193 Dipole_moment: 5.128
 S          -0.06443275594440    1.00837536471621    1.49424267741303
O          -0.05355463331362    0.12495972559721    2.64176396751741
O          -1.15882503867849    0.65610019154287    0.57595994310229
O          -0.33847823271794    2.45563819691284    1.99312108146580
O           1.20731581940091    1.00806578483462    0.77745325922393
O          -1.62861390131477   -1.85868733931440   -0.17935992868411
H          -1.65888112108326   -0.92899351015304    0.13033540937130
O           0.10390064447660   -1.09272730126543   -2.27922777358255
H           0.38331964356417   -1.21154056087413   -3.18809644616854
O          -0.91532534811900    1.37205211779479   -1.87187996577688
H          -1.01061538480890    1.13251190596277   -0.90666080953034
H          -0.19377844785526   -0.15836519432720   -2.19500925113679
H          -1.80963525037691    1.48844212216531   -2.19866640555389
O           1.96597874504179   -1.31176351019801   -0.22732384252999
H           1.41392911259485   -1.31763122804702   -1.02933831324856
H           1.86968713480066   -0.40165405248092    0.13030268277277
H          -1.14647628746644   -1.82054061245595   -1.01867895405812
O           0.52404696248271    3.29416028816687   -0.35634486217253
H           1.12421981939065    2.56730473151174   -0.11416501683053
H           0.01041392676787    2.94679176546510   -1.09901727406554
H          -0.12540916735227    3.00666947508413    1.20711558792284
N           0.30538023935484   -2.22949537007588    1.56680063189737
H          -0.55521005308107   -2.31403003721499    0.95554658057669
H           0.46437815427190   -3.04422400204334    2.14834999027201
H           1.11426945195295   -2.02245653091190    0.89862843767720
H           0.17239598801283   -1.34896244039103    2.14414860412641
