    26
        -50.46484285  Gyration_radius:  2.4437568071 Dipole_moment: 3.444
 S           1.20278432853771   -0.28266415584472    1.19188933845595
O           2.15555630627042    0.70679495501862    1.67095962632899
O           1.42687572884585   -1.58679496425362    1.99842372125567
O          -0.17292781482612    0.16293004079410    1.40408091566487
O           1.41769676865169   -0.58854050583634   -0.22695610500416
O          -2.35655223522034   -0.92810797154977   -1.93524468904367
H          -2.29975322762435   -0.89121912518209   -2.89113108880333
O           0.82214052231615    1.65607915499659   -1.54824957923691
H           1.17930460214827    0.79703171808154   -1.23909957756138
O          -1.57631880424577    1.30974857825011   -0.57738053046033
H          -0.16067195806326    1.56506432822290   -1.42840418675002
H          -2.03604322695596    0.58907119264217   -1.04678699948456
H          -1.18247663908035    0.88638561776288    0.20983457566121
O          -0.98927564509964   -2.39213838251246    1.58179284737797
H          -0.93804068888782   -2.61046611217291    0.63496553926135
H           0.55272119640172   -2.06708579873284    1.96036155294090
H          -1.16315721087807   -1.43817480055968    1.61904925837098
O          -0.21570791602555   -2.41452937766705   -1.05332781158350
H           0.42811800184729   -1.70846676730426   -0.77849774026232
H          -1.64916171916879   -1.52625988283894   -1.63601842815825
H           0.30668571393918   -3.10330581204794   -1.46725033846883
N           1.04935397081716    2.81727759559407    0.72655050698838
H           0.09658506839235    2.84409939731473    1.08347095261000
H           1.51348681835637    3.71256404356084    0.83918559036418
H           1.57509765301874    2.01829586013455    1.22878971886079
H           1.01368040650329    2.47241117410570   -0.32100705933086
