    26
        -50.47350524  Gyration_radius:  2.40653619774 Dipole_moment: 5.126
 S           0.76308275461511    0.23912841116940    1.61669461683580
O           1.15556400313782    1.62810343973479    1.73505203833813
O           1.33798208394995   -0.53756945369797    2.83516033276317
O          -0.68668813797703    0.06735569337219    1.61168326071018
O           1.34479940536646   -0.36573669053603    0.40819240021438
O          -1.13034656793974   -0.68420713187880   -2.15745400949131
H          -1.77179446175515   -1.12849165129793   -2.71377230213405
O           1.24624905031418    0.83801557302929   -1.97057228958463
H           1.47982442338948    0.36561944855002   -1.14385480436052
O          -1.98489029923671    1.25253360474341   -0.35665269990570
H          -1.81753810104088    0.60259470528193   -1.06204285317652
H          -1.67300153138051    0.81044200279400    0.46364454160236
H           0.46483989232924    0.37304579164064   -2.30450426438959
O          -0.34817519280325   -2.47744583700326    2.23458885415335
H          -0.22007475383880   -2.83476721477673    1.34470790201983
H           0.86493817041846   -1.39863362581670    2.79413641116293
H          -0.85183541035355   -1.65613603026331    2.09695890930657
O           0.16725192565291   -2.42617254311399   -0.55731512994660
H           0.85149418576850   -2.93376563197228   -0.99802707976071
H           0.63448317557014   -1.64422740023330   -0.14702142706506
H          -0.74762054175912   -1.36992467059031   -1.56409883982841
N           0.18644551125270    2.70014955642305   -0.44203909781857
H           0.70595217542439    2.15977079581876   -1.18997718148843
H          -0.80614445051717    2.30198556435993   -0.43604286616449
H           0.61998174611918    2.41461633585444    0.48356487285327
H           0.21522096521413    3.70371696840162   -0.58100929482442
