    26
        -50.46278505  Gyration_radius:  2.5484990164 Dipole_moment: 6.699
 S          -0.89235645678976    0.18734499342246    0.83945791804134
O          -0.75324283603107    1.58672107310285    0.42210323079462
O          -0.06721167125732   -0.14597603269442    1.98247855557703
O          -2.38328910258590    0.00565176665905    1.22735384605309
O          -0.62958179451426   -0.69222053408519   -0.30294399022607
O          -1.11573707940690   -3.19355088280198    0.42804667530804
H          -0.85590202599363   -2.29959101711026    0.11728892141912
H          -1.75119204640613   -3.52361324794857   -0.20929390275146
O           1.88039511523186    1.48327577727250    1.27617943686764
H           1.25682043624781    2.19490883326407    1.10494253961756
H           1.31667001247101    0.78196956573769    1.66129200875047
O           2.98991332647242    0.59431645637149   -0.97472465459614
H           3.66721760694716   -0.02879693053290   -0.70781091891253
H           2.61129597737690    0.95222435878350   -0.13589056217569
O          -1.86020732087185   -2.00806415384713    2.72612205696247
H          -1.02887822840507   -1.53724838345971    2.89056204453580
H          -2.37095248808202   -0.77883622465344    1.85184143786821
H          -1.64328073917279   -2.66585035942554    2.03345564747230
O           0.90041762726410   -0.21720474593955   -2.38743114174739
H           0.24190196545140    1.07657656159843   -2.34684349217619
H           1.76796810510341   -0.00931485030603   -1.96456237705115
H           0.35832932926534   -0.60638430196926   -1.66561696089712
N          -0.28831340885227    2.01624392008110   -2.06770831388814
H          -0.53562667263524    1.86737316281650   -1.02105052085130
H          -1.13729686844254    2.13928392922890   -2.60879732933858
H           0.32213923761622    2.82076127643989   -2.16845017465754
