    26
        -50.47350534  Gyration_radius:  2.40649311914 Dipole_moment: 5.128
 S           1.00990206699480    0.47019161331864    1.41838697520112
O           1.73376717979352   -0.69982213848780    1.87060335854839
O          -0.42611872886991    0.36527677908304    1.65942162166670
O           1.54221204560555    1.70647585844873    2.19729579619696
O           1.26273957007401    0.72021297937162   -0.00924935484440
O           1.13019313558891   -1.22119283717658   -1.83395175792569
H           1.35491546699752   -0.46079074928290   -1.25731017355513
O          -1.54264082936809   -0.31062979873685   -1.98009683098770
H          -2.33901827289703   -0.20625097047070   -2.50276708209301
O          -1.65959084988580   -1.63657648401838    0.46066461589646
H           0.22242193686729   -1.04740578901481   -2.12404563713597
H          -1.35375504993991   -0.89175239505348    1.02388405170664
H          -1.74974951564140   -1.24825113667163   -0.42757864164509
O          -0.62247381486542    2.98637658002218    1.39443214046482
H          -0.70412014645278    3.03489425002546    0.43161546902304
H          -0.92984312465180    2.09093610874006    1.61996806683325
H           0.87676807813333    2.40123119967380    1.99431432308239
O          -0.49144704098985    2.07722428998353   -1.29214662573924
H          -1.25757552262663    0.59360458103327   -1.71599957694564
H           0.19977716690704    1.58084495776431   -0.76882619563077
H          -0.01410845999430    2.51779912452302   -1.99791698219109
N           0.76293655749461   -2.60781302063575    0.37252253157963
H           1.03160216958004   -2.27074253514740   -0.59476260885247
H           1.01185292505912   -3.57554389045591    0.54219788377727
H           1.23701416561249   -1.94957993055067    1.05687749105860
H          -0.28566111850572   -2.41871663635418    0.46246714254368
