    26
        -50.45554489  Gyration_radius:  2.50356747754 Dipole_moment: 5.886
 S           1.30418474962363    0.54258734857209    0.15697520648782
O           0.78103151524714    0.38399252759528   -1.18043454578717
O           2.77120263486589    0.59824519849040    0.21384766104039
O           0.72404188237195    1.69201133301930    0.86609821076904
O           0.94999950075710   -0.70482067756791    1.00108249845551
O          -1.99142875250834    1.53289619096031    0.70696265232547
H          -1.05905667141340    1.78715748564875    0.80956532093881
O          -2.01802618772188   -1.95331757952888   -1.49653099589635
H          -2.41177982761406   -2.82508887675522   -1.55054351953526
O           0.48519545447709   -1.94384440049789   -2.40173381281003
H           0.60474765114605   -1.73202258775427   -3.32980462502903
H           0.71937156829850   -1.12653940145259   -1.91252891308941
H          -1.09730883819978   -2.03551911363616   -1.84367015579249
O          -1.52739124698493   -1.02320645260262    1.02277808943798
H          -1.76979728696288   -1.39016177474161    0.14816948498797
H          -0.08630604109296   -0.88244556525976    1.02541206763087
H          -1.84054243423951   -0.07624521921149    1.01224200687882
O          -1.82563027840995    0.87833277185265   -1.91152959694543
H          -0.86400446917027    0.82069529372544   -1.78792195193860
H          -2.14082365259489   -0.03433342173918   -1.91420403917555
H          -2.13596782993718    1.49649424316520   -0.26102036044495
N           2.51259626680463    1.20835191192660    2.59732606640760
H           2.31132900637126    0.41047013089517    3.19247249302696
H           1.61705634606429    1.61300805404574    2.18704345336530
H           3.09553555133365    1.89508296452537    3.06433327553232
H           2.89177140953982    0.86821959632962    1.58561402915246
