    26
        -50.47350526  Gyration_radius:  2.40650051575 Dipole_moment: 5.126
 S           0.65332510093857    0.91480555503324    1.41023238972392
O           1.95305401185055    1.14998651740430    2.23101457049706
O           0.17895772987413   -0.43754211074315    1.68850096825915
O          -0.31154966182878    1.92795279084165    1.78420266077852
O           1.01413272510429    1.03812412727297   -0.01079936930380
O          -0.61211148984239   -1.49404316023339   -1.94739751746676
H          -0.69227745139221   -2.31304565660385   -2.43841189966318
O          -0.82131722377315    1.32660054084744   -1.92487115726224
H          -0.05259842168091    1.37488258140450   -1.31829090382127
O          -2.01989894548424   -1.17243058819466    0.42768619405297
H          -1.63176485461836   -1.39328621409347   -0.43748647590624
H          -1.24522306808164   -1.04203526333011    1.01801636911635
H          -0.87226970222815    0.39358077284192   -2.18015615206658
O           2.67300503388725   -1.29819945664841    1.55647674179148
H           2.46362457101150    0.32292232597670    2.08205980402068
H           1.72074571622474   -1.36097937122860    1.74734595176310
H           2.73726762955303   -1.42841341069662    0.59994690743948
O           1.93457353561511   -1.05106169044917   -1.17352245713433
H           1.60849792345387   -0.23668987857971   -0.69551760411374
H           0.32358810412533   -1.43492878949828   -1.64802221888818
H           2.50932741892747   -0.72901612625955   -1.87065822992426
N          -2.34136233619058    1.41075863215358    0.22211234889224
H          -1.90945253216267    1.54670423506498   -0.73512647541734
H          -3.22040020446061    1.90190364461526    0.33750793162063
H          -2.42768336102456    0.35269662606955    0.35141139811806
H          -1.61219027779179    1.73075333703266    0.92374619488525
