    26
        -50.46278517  Gyration_radius:  2.5484744655 Dipole_moment: 6.697
 S           0.06213646752735   -0.86373568740649   -0.88611576551477
O           0.98241241248084    0.09131152346189   -1.51263228287632
O           0.18960315377157   -0.78156696592513    0.57155292710675
O          -1.30922872295159   -0.69525327203300   -1.32169695716827
O           0.55398904209746   -2.27157629433910   -1.31294990067709
O          -0.74628720935904    2.99537259942475    0.83506892454809
H          -0.88323026597017    2.63636875120751   -0.07459276290914
H          -1.62412860852695    3.14211975166266    1.19027557703877
O          -1.09964512939573    1.91957113844820   -1.57439249779300
H          -0.26896698484965    1.83494910911374   -2.05114383719408
H          -1.39427590398115    0.99149737837377   -1.47433773097467
O          -1.30686051448929   -2.68073473308277    1.65882000498685
H          -0.78866203285766   -1.91828918923009    1.32218702335435
H          -0.70865833275867   -3.18741788641648    2.21053571215203
O          -1.75402537873206   -3.31665116259067   -0.91728959954271
H          -0.26396946978692   -2.84458150111393   -1.22350498862919
H          -1.77261129289303   -3.28574181115672    0.06163665839952
H          -2.07976335602755   -2.44832949167825   -1.19969260609491
O           0.90975788264969    1.29519798281593    2.01326484888821
H           0.25837162984648    1.98048198961719    1.72924197102274
H           0.55039150588753    0.44944972108799    1.66395212431530
H           1.92828768594929    1.42556405169566    0.98646138179680
N           2.53664337202269    1.40822382784261    0.05275686183657
H           1.92902555648323    0.82924296939999   -0.63596717807177
H           3.42856686043363    0.94766106441807    0.19762691722124
H           2.67112762343398    2.34686614641060   -0.30906484521892
