    26
        -50.47350523  Gyration_radius:  2.40649240314 Dipole_moment: 5.124
 S          -0.74802177484174    0.86340162833316    1.39538351935089
O          -1.47255010993318    0.94240297555641    0.13041904422366
O          -1.78794435167724    0.68787717549115    2.53825328779570
O           0.11083161915028   -0.33110697561136    1.40869660829177
O           0.02807664442719    2.05619743785389    1.66420764828140
O           0.76591932218190   -1.44935253264709   -1.92640356352576
H           0.67417533398454   -1.99870026088420   -2.70613685966967
O           2.43929235312340   -0.42322012662933    0.11030294665599
H           1.69154469200330   -0.46972218980896    0.74263664131485
O          -3.05336399055594   -1.00551317802852    0.95776720558158
H          -2.51014149898160   -1.76189540016012    0.69540591746604
H          -2.39603056764772    0.00153545662600    2.18318203046177
H          -2.76511539427845   -0.28379087980856    0.37189765437181
O          -0.71751702530859   -2.38683958164511    0.12366544720064
H          -0.33793091514508   -3.14464729420046    0.57282028717393
H          -0.42683663641525   -1.58877817548831    0.64970182992290
H           0.15257597911406   -1.81547815357326   -1.24937693179322
O           0.00946664281727    1.22287333611657   -2.03512565724169
H          -0.68400889607356    1.18712923497240   -1.33984924118440
H           2.11048099897165   -0.86103934005826   -0.68870347759081
H           0.28603657708830    0.29646668942775   -2.15040173943110
N           1.75575563803394    2.08579107365554   -0.29603124331115
H           2.27489473457621    1.17761422956445   -0.13150642842292
H           1.11329509850945    1.90300952020021   -1.13114045349873
H           1.11565692555386    2.21615929703058    0.54042509530111
H           2.37145860132771    2.87962601372454   -0.43008955772515
