    26
        -50.47350527  Gyration_radius:  2.4065167623 Dipole_moment: 5.129
 S          -0.82581368873349    0.29886378994904    1.57543586639374
O          -0.29526367409291   -1.04652202898277    1.37589961905136
O          -1.07167647507115    0.93991582541768    0.27414339019766
O          -2.20236893952668    0.17529525587075    2.28828720777461
O           0.04029806273917    1.11948463470136    2.39622728533049
O           0.86656066783436   -0.63280512504246   -2.29070907498460
H           1.03829929688464   -1.20165622957374   -3.04246952001811
O           0.89918443779894    1.97441913701587   -1.19644657501134
H           0.08004591015120    1.77193166827887   -0.69736214851862
O          -2.71202996598504   -1.85408694834697    0.67913038636077
H          -1.77740437770609   -1.96071739272585    0.92866375991189
H          -2.64753914820816   -0.54651442208664    1.79067426721080
H          -2.68689389531935   -1.61576613420285   -0.25818755894732
O           2.04358900302622   -1.19790661011970    0.16297774520757
H           1.21482811080521   -1.31855838760017    0.67698721606932
H           1.74499576355643   -1.08572246557959   -0.75694103260528
H           1.02865404293810    1.20779637700909   -1.77428273301600
O          -1.75894780143846   -0.57805506446339   -1.67190102598948
H          -1.52553085894080    0.00333338794696   -0.89363379667881
H          -2.29038405529073   -0.03055452869777   -2.25315115185715
H          -0.09313867357957   -0.71462015699233   -2.08798694527967
N           2.22348055031989    1.27915828979245    0.96918195592774
H           1.41937935414977    1.29315853217593    1.66160675483465
H           1.86693662193337    1.75565674671680    0.09330280034301
H           3.05818320389570    1.71159683781031    1.34800738326777
H           2.36255653785252    0.25287505172258    0.70254590502521
