    26
        -50.46972955  Gyration_radius:  2.43097091458 Dipole_moment: 5.140
 S          -1.46601771362510    0.56360842041607    0.01254488661415
O          -0.49405655909878   -0.51919785992339   -0.62329524653361
O          -2.32272713517996    0.95502159040977   -1.07577676895271
O          -2.11737428704294   -0.05517767100364    1.14240341362384
O          -0.56462175108427    1.65379074924183    0.43775650205067
O          -1.32520642355700   -2.47393830296939    1.87736047328878
H          -1.99237205467868   -3.11412506419946    1.62884515933474
H          -1.69738720751603   -1.59318963043433    1.64968706437735
O           2.65545370958679   -0.55410368357905   -0.72970670736391
H           2.56579027273384   -1.30789093386993   -1.31586387499371
H           2.25667670032460   -0.82822725269464    0.11566173323266
O           0.11970277787375    0.66729214973782    2.78703071013927
H          -0.12382216174869    1.19662556284271    1.99964569207353
H          -0.71696195229387    0.32506826690281    3.11505637174394
O          -0.73689214635576    0.91193855740915   -3.12393471831865
H          -0.75698140133591   -0.01807223777399   -3.35870913397017
H          -1.42993471385083    1.00583689453815   -2.41786544934927
H           0.53661354034288    1.34623672443342   -2.24565166038968
O           1.03109258580791   -1.32480983509131    1.33725793343067
H           0.07980769853644   -0.86145259063738    0.11449120113041
H           0.86063053767040   -0.58762662544098    1.98016212170022
H           0.41889285952530   -2.02753596455694    1.61945360152205
N           1.18150352227989    1.61228867916647   -1.44670403598660
H           1.82295338834616    0.81808619899108   -1.21721867304798
H           0.51649554164069    1.74794755244060   -0.61539755601939
H           1.69874237271303    2.46160630565103   -1.64723302934959
