    26
        -50.47350527  Gyration_radius:  2.40655291513 Dipole_moment: 5.125
 S           0.98477909473010   -1.45648077083327    0.40066224711253
O           1.85661777042612   -1.12743373450259    1.50929815825675
O          -0.42094849237038   -1.50545528117933    0.79161613789009
O           1.16568757749760   -0.50312513692563   -0.70524130900991
O           1.38590597932526   -2.85898260785525   -0.13821615408802
O          -1.54891445151158    1.82695523465815   -0.81355510607524
H          -2.36733353980395    2.21321921751529   -1.12866818452131
O           1.21764279058200    2.13515558101093   -0.31305777177649
H           1.36503918691326    1.20113430566655   -0.57189469211009
O          -1.43632480893229    0.73766746320491    1.74148340164033
H          -1.20691913968245   -0.18063002584106    1.47757540914806
H           0.28789361079721    2.30355369989135   -0.52644622224343
H          -1.59716222671877    1.19937942401937    0.89951674443034
O          -0.93882547063127   -2.90706220384464   -1.38683274586077
H           0.63541847143754   -3.09418542505121   -0.72854377395115
H          -1.13009182299522   -2.51447792070541   -0.51709229699047
H          -1.05205432131689   -2.17735897758662   -2.01192050903618
O          -0.77370254956688   -0.24464413891541   -2.35952307688763
H          -1.36713069890576    1.04591354367450   -1.38414387926968
H          -0.37253936682310    0.01245892926328   -3.19201522094622
H          -0.01367991706589   -0.38441973945582   -1.72642523758019
N           1.08195760600631    1.27825590598537    2.17195871267385
H           1.28141129406794    1.81531817834819    1.28144506230323
H           1.45014630298900    1.72921710313437    3.00161917204270
H           0.02109587848623    1.14657750741582    2.19736779830073
H           1.49203128306992    0.30944986893146    2.03103332652812
