    26
        -50.47350523  Gyration_radius:  2.40657595476 Dipole_moment: 5.132
 S          -1.20188396683933   -1.07913908929267    0.80332708064879
O          -2.03176980245133   -1.24475890847649    2.10807552941345
O          -1.72164526551326   -1.99931583083785   -0.18690611133960
O          -1.37101069107789    0.31353192128306    0.36008017375697
O           0.19993550832233   -1.33429371320371    1.12118622532165
O          -0.70562439716722    1.11421136376406   -2.09642105646404
H          -1.12330310901807    0.92454606588610   -1.23002586823731
O           1.74231563132344    1.65582003992194   -0.78890944784477
H           2.54579603900546    2.17650047899885   -0.75083543998620
O          -0.09601938052663    0.04883641674530    3.35251936352144
H          -1.49992613184490   -0.75492861052280    2.77426162309963
H           0.35881650004132   -0.54286840151072    2.72790750264176
H           0.05981529333790    0.93695373710910    3.00183629059423
O           0.19105274838331    2.07019195228783    1.37902853643104
H          -0.29924127398134    2.89446413552746    1.36253384821736
H          -0.43333180809609    1.37839481557297    1.01893159340079
H           1.26496814475292    1.81058535229077    0.05781483309707
O           1.89783320255965   -1.11783572507863   -0.88789550080404
H           0.17329572643188    1.45544135322113   -1.87389225341336
H           1.98906714436063   -0.14864777804192   -0.90573256342284
H           1.40507993886464   -1.30267315043782   -0.05806681390115
N          -0.27201615450440   -1.47405358001726   -2.29630507891659
H          -0.34172355534944   -2.04947448351379   -3.12772686174923
H           0.70776069276720   -1.46671710496125   -1.86789095529439
H          -0.51508285455073   -0.45811824615211   -2.46988111739436
H          -0.92315814922391   -1.80665301056759   -1.52701352138586
