    26
        -50.47350527  Gyration_radius:  2.40646806906 Dipole_moment: 5.127
 S          -0.59868957436165    1.08375396415238    1.31124648286653
O           0.26773562506001    2.24234730294829    1.37711631065707
O          -1.57001775176238    1.12921804132653    2.52488903964612
O          -1.39852213358060    1.05361832983309    0.09031727157772
O           0.18151610825949   -0.15781987512281    1.43151396802539
O           0.54369186941176   -1.73069042007339   -1.76219781043170
H           0.36724928181056   -2.36660557456970   -2.45700942019588
O           2.40872679716413   -0.57985193712146    0.02481665754401
H           1.70326046763191   -0.49272277350835    0.69990261480335
O          -3.04090156521928   -0.65690696223063    1.25466002076809
H          -2.24185169097568    0.44789288954615    2.29837699839410
H          -2.74739760515646   -0.03756649345965    0.56370734277776
H          -2.56551041339977   -1.47727734446259    1.06225862084573
O          -0.85735386863514   -2.29468001510274    0.47362064140989
H          -0.48306980663816   -1.45942934953818    0.87419272850018
H          -0.04598749736451   -1.96387569476066   -1.00945706864585
H          -0.49736287933270   -3.01505650116313    0.99472419642398
O          -0.04712110866897    0.95415245989294   -2.17424501700795
H          -0.69398971609563    1.05558099197583   -1.44151074320596
H           2.00003654317354   -1.08954376490998   -0.69046113913540
H           0.16145835438924    0.00317874167629   -2.18426642073298
N           1.86196729583920    1.90052102006353   -0.66479384027913
H           2.33116612905948    0.98498166762408   -0.41338441080065
H           1.15569915601263    1.66132749202180   -1.43120482672866
H           1.28774308716933    2.18085324448088    0.18257505052198
H           2.51752490620766    2.62460056049235   -0.93538721760896
