    26
        -50.45462527  Gyration_radius:  2.43339026008 Dipole_moment: 7.035
 S           0.49280448017861    0.74645871431338    1.73346017528744
O           1.79117502440887    0.35664314734329    2.33161333273614
O           0.90435697193261    1.83211792352826    0.66580014558230
O          -0.05685500762435   -0.36779694547033    0.98155903005426
O          -0.43090710136942    1.32461240567739    2.66969563653383
O          -2.56751439453064    0.32188337478686   -1.01494900930040
H          -3.28586075248525    0.85997438706497   -1.35098743753310
O           1.21668866774110   -1.35314228173111   -1.75799214995171
H           1.49400855384330   -2.00365708577822   -2.40432923288268
O          -2.73873210580566    0.59476075601687    1.60899219486284
H          -1.92233895843356    0.96564113060223    2.01289373823372
H          -2.59478601156892    0.42252338377890   -0.02733328091261
H          -2.83415542169751   -0.27456672514925    2.00353147547403
O          -1.08196402154021   -2.03869574679532   -0.74826179786792
H          -0.79138512774158   -1.59763086675006    0.07314667909979
H          -1.76106208455479   -1.44113378103166   -1.09209100734270
H           0.34546472217826   -1.68529664973567   -1.38529705823365
O          -0.07026145894831    1.16026130644731   -1.62427348435967
H           0.46170641963253    1.63665436252822   -0.21489484027985
H           0.40285100777326    0.33541575628788   -1.80844186315432
H          -0.99397939792529    0.89155685028898   -1.43204346853867
N           2.82982221292154   -0.15845541831515    0.12750379006820
H           2.16861585332663   -0.70865078805819   -0.45873513171164
H           3.74239315362714   -0.60110411394739    0.15779518474910
H           2.89317706707317    0.78253410275294   -0.25473744610283
H           2.38673771958613   -0.00090719864598    1.20837583549062
