    26
        -50.44582850  Gyration_radius:  2.49689617753 Dipole_moment: 4.792
 S          -0.61625776709011    1.72494373124520   -0.37139474061291
O           0.35401841200275    2.19656026560897   -1.31953358319866
O          -0.00667941363911    1.52440018174259    0.97930711944292
O          -1.68824624199416    2.84144248272912   -0.17363232280245
O          -1.28687790726422    0.50681066749155   -0.77962304910575
O           0.17985235499219   -1.86446979114986    2.39866359808014
H           0.46593322464886   -2.74888419939349    2.63210250152833
O           1.84767194526824   -1.47383251155088   -1.03081134758707
H           2.75536785481012   -1.58457969560829   -1.31786219844648
O          -0.81773187789655   -1.97239660565330    0.00124276668237
H          -0.37059626782063   -1.95062034892274    1.56900482365831
H          -1.12502287508075   -1.07573892099864   -0.25977459002119
H          -0.02615374786151   -2.12961219442824   -0.52558494970810
O           1.69888521820406   -0.21766477579539    1.19505176818628
H           1.77709269042684   -0.68176623301983    0.28311987344141
H           0.99547220697856    0.61064603248760    1.07863897882915
H           1.17826085445946   -0.87018872024221    1.79397249734202
O          -2.40043587318625    1.67388045704706    2.10103044382527
H          -2.38482526973086    2.21292777753053    2.89496259450148
H          -2.22735573746328    2.50361450985977    0.56751410705101
H          -1.47560285574739    1.42575332706786    1.91469541144057
N           0.61691942185081   -0.11042351384438   -2.83063259842921
H           1.37275956674066   -0.93682540067150   -1.77708066934669
H           0.61305165699965    0.82028967395261   -2.40127963021298
H           0.92334996821325   -0.01889770014424   -3.79128231571823
H          -0.35284957080730   -0.40536846534063   -2.83081448882448
