    26
        -50.45554499  Gyration_radius:  2.50362025163 Dipole_moment: 5.885
 S          -0.01344614150334    1.42070480896797    0.03962403014580
O          -0.13411783314272    0.67394483426601    1.38937381400862
O           0.97191146264951    0.76388500014123   -0.78816142160755
O          -1.35838728713137    1.40957545753512   -0.55337369243822
O           0.35910572125018    2.78761222239184    0.42837244502496
O          -1.97453490383471   -1.14788913177518   -1.26346001284704
H          -1.90614687666050   -0.18622416977565   -1.14077680170892
O           1.60190890466407   -2.74994328411548    0.01978700902990
H           1.98485283839985   -3.46202256302136    0.53369972889411
O           0.49850632582025   -1.48334086415587   -2.30476794718572
H           0.88539434227962   -2.13444634719626   -1.70590012985032
H          -1.23119299129487   -1.37797896379035   -1.85823459287290
H           0.72357371840163   -0.61731232454058   -1.92716597869361
O          -0.73748864300766   -1.71386565973274    0.97227784147198
H           0.07596551107260   -2.15692078088003    0.65555896335850
H          -0.37508606711343   -0.34119994310168    1.25750883537236
H          -1.32332671162882   -1.62405234157981    0.17005398310595
O           3.07719673687151   -0.53784145016906    0.14514615470312
H           3.73857018859188   -0.42425752333825   -0.54052972987607
H           2.32958205503149    0.04326623782087   -0.11091592316027
H           2.20106662740231   -1.97177510642850    0.12192077669714
N          -1.93258899150031    3.00056632646431    1.33559627139916
H          -0.83518504043626    3.12420459518930    1.08452831201601
H          -2.09263853555257    2.30802418511696    0.54241509726650
H          -2.04603234924141    2.55074102318265    2.23899066606711
H          -2.48746206035812    3.84654575254616    1.25843230168693
