    26
        -50.45462549  Gyration_radius:  2.43332142076 Dipole_moment: 7.031
 S          -0.02433521792940    1.43831998014957    1.31841883431215
O           0.17701928270922    0.02825628025579    1.03505746777755
O           1.26136376483810    2.05918477230228    1.71472965887033
O          -0.33729793537416    2.12118948222040   -0.06854041854928
O          -1.10314164385688    1.69710962784333    2.23120868972392
O          -2.27728235814264   -1.50928349887880   -0.50743417293360
H          -3.17706164504271   -1.60715911757271   -0.82257708331123
O           1.76735102043868   -0.97631024393032   -1.52689099384057
H           2.36907623263517   -1.54460248516248   -2.00936978877838
O          -0.74500887749003    0.28335953540051   -1.82986624952479
H           0.11965094722148   -0.15099277558227   -1.87216568339102
H          -1.33627590683907   -0.35980919329934   -1.38363888890049
H          -0.58525629094676    1.42480804728153   -0.74922648995232
O          -2.55651456372895   -0.48744469511917    1.91494490173418
H          -2.12390434242241   -1.06653119405478    2.54589527023541
H          -2.10800391387162    0.38113657436562    2.02258966788223
H          -2.35098751730934   -1.10599323780716    0.39706337714887
O           0.30995248012383   -2.40480921364772    0.08804321079324
H           1.25719940209738   -1.57642143004664   -0.90396728985973
H           0.29360164741368   -1.62527878900053    0.67607759798678
H          -0.59276903107458   -2.43922799505256   -0.25902091829053
N           2.38546605545344    1.47220162366054   -0.42863101433298
H           2.16966335536975    0.48719194133271   -0.68698841655098
H           1.94376007193450    1.72394698500025    0.63483886874633
H           3.38400758818368    1.64774149040433   -0.47034522000720
H           1.87972740560990    2.08941751893811   -1.06020492698771
