    26
        -50.44582851  Gyration_radius:  2.49697460026 Dipole_moment: 4.789
 S          -1.54042298265974   -0.43661073059736    0.96323795372485
O          -0.32715146320170   -0.12281903332567    1.77906390574040
O          -1.13429020706043   -1.07463506952814   -0.27294122670604
O          -2.34843760169955   -1.46616077952104    1.81300816266621
O          -2.35853644369446    0.72811872959370    0.77123651102907
O           3.00729111304960   -0.40287666638415    0.24689351952081
H           3.82230692669828   -0.21527226987607   -0.22120225555162
O           0.59341430026786    1.93574446895035   -1.59591803208167
H           0.62874777132967    2.87555962893562   -1.78058615642971
O          -0.06488493475674   -2.68190922174211    2.40567426446589
H           0.14239825533558   -2.79814482055865    3.33554446584958
H          -1.68925099938438   -2.16030555655829    2.00749249499251
H           0.13884473853227   -1.75280070944680    2.18903750902767
O           1.31296773062911    1.41017878025716    0.80408671226913
H           0.54307746970588    0.78913910945160    1.26874239563046
H           2.08640614405635    0.74674543741112    0.67305389245901
H           0.98691648913891    1.64486357814008   -0.14031249395734
O           1.18095553456417   -0.90479790183025   -1.53290357802640
H           2.37077852824068   -0.77993125854028   -0.42495953674746
H           0.33373444100503   -1.10541193360385   -1.07629446162507
H           1.05467473320272   -0.03318141292519   -1.92430722147541
N          -1.83928565108217    1.16559964995960   -1.91453124485686
H          -2.53241644694101    1.66302671914669   -2.45976092272301
H          -1.81866326646853    0.20127388943079   -2.22609230640831
H          -0.38970974254487    1.64931601804129   -1.74557661433346
H          -2.15946442625967    1.12529136515247   -0.94168572646300
