    26
        -50.44582852  Gyration_radius:  2.49704132786 Dipole_moment: 4.788
 S          -0.04980752184585    1.85795567138245   -0.19194260288055
O          -0.33805792017512    3.26566669906044    0.41652551054798
O           0.84947593176382    1.14650565709793    0.69417521039332
O          -1.37368132902201    1.16297074689687   -0.21442188970352
O           0.46942572783359    2.03957589595959   -1.51875012604030
O           0.99939964396199   -1.89541864191741   -1.43354492700758
H           1.09878025408451   -2.32610413508043   -2.28396351801765
O          -1.68865649677809   -2.18382588536284    1.28413007061054
H          -1.69571092598732   -3.13237443812175    1.42108648211669
O           0.78374167031240   -1.39345959922429    1.41591270532814
H          -0.77296231232761   -1.86572935213408    1.52712287106350
H           1.14533601814871   -1.77020182984549    0.60586129902226
H           0.81789047939349   -0.41997177523158    1.28282416896515
O          -1.41404672607178   -1.14713742583584   -1.02203723280120
H          -1.65379498268939   -1.61565433412947   -0.13971439519323
H          -1.40579760662348   -0.09219592516766   -0.73671101669659
H          -0.44444303660574   -1.41634204928419   -1.22348050272880
O          -1.93005523455464    2.10705901363058    2.19585535332977
H          -2.83367124171849    2.42584525840282    2.25011366721315
H          -1.88592101013753    1.52743435839484    1.41237452920708
H          -0.80210942849716    3.05705471084891    1.25038415765054
N           2.51949178026420    0.17865125249088   -1.42378086354908
H           3.31366932654612    0.31117679064752   -2.03767994887562
H           2.82342722304706    0.33359175081772   -0.46930421082921
H           1.83734701884231    0.92042657942239   -1.61072426931651
H           1.63073070883221   -1.07549899372060   -1.45031052180442
