    26
        -50.44582848  Gyration_radius:  2.49680242806 Dipole_moment: 4.794
 S           0.22741114637388   -1.78031851784598    0.52206557317744
O          -0.42586352161646   -0.88250273775636    1.52370811025940
O          -0.38176800432252   -3.19318359080594    0.78202826105114
O          -0.14170226467364   -1.35615347173862   -0.81359715800891
O           1.64601619549162   -1.85679729078437    0.73331647871140
O          -2.03989911248158    2.22323101712750    0.39386764584028
H          -2.20879407518427    3.13103285912543    0.13714245743844
O           1.65111079993769    1.89109413441500   -0.58810581837633
H           2.42206187588166    2.41627622715130   -0.36816481191221
O          -0.91851476747995    1.03391406525910   -1.62675544011229
H          -0.74142310470805    0.09632743223369   -1.38988550792736
H          -1.79268301931181    1.73054489551422   -0.43976701723607
H          -0.05290210616776    1.45752694851315   -1.63840990244300
O          -2.75943438531923   -2.05025888461231    1.07442395400168
H          -3.23177656224219   -2.22103335675196    1.89224658558436
H          -2.07937117360948   -1.38180042175928    1.28000079901619
H          -1.34421127715857   -3.03043961101367    0.74748806761844
O           0.15511784603148    1.49386980534067    1.45123528362143
H           0.78905705850459    1.62818129022757    0.65555251655343
H          -0.75318931982896    1.86541409970850    1.14725399152330
H          -0.04205411045868    0.42185888230001    1.53206850752539
N           2.47477302168788   -0.38309592411910   -1.46126641687509
H           2.33968013442962   -0.97083276567340   -0.63249497882220
H           2.00951524666693    0.99007205046109   -0.94954375022229
H           3.40248127577326   -0.55521202253661   -1.82844951722173
H           1.79636219378467   -0.71771509198237   -2.13595792275823
