    26
        -50.44582852  Gyration_radius:  2.49695054596 Dipole_moment: 4.790
 S           1.78844251111227    0.24010870469260    0.48632729483611
O           1.34718826314854   -0.30885672122641   -0.78023504651150
O           0.84432790102722    1.31831938223973    0.91316129935751
O           1.95782973394116   -0.74619114430051    1.51652806304098
O           3.15651552344549    0.95824327156361    0.26827500424210
O          -2.35936938603834    1.72504255717607   -0.85066987469863
H          -3.27537644969123    1.64846735800524   -1.12200040729103
O          -1.77286832962167   -1.76898646339328    0.61199619654074
H          -2.24588230187250   -2.27235584630386    1.27641583917232
O           1.85701583316946    2.95027693105888   -0.90963451865209
H           1.99288740088362    3.83243174958971   -0.55688365093313
H           2.93028800582848    1.68754930952753   -0.34083319497940
H           1.23411152198340    2.50234873564648   -0.30718574728160
O          -1.48717744973272    0.68098689434315    1.29813291133447
H          -1.57425708069804   -0.31349261374778    1.06038720013034
H          -0.43146318814008    0.94676938714106    1.20204475397717
H          -1.91800471695418    1.19094209937969    0.51718066311302
O          -1.08515539806518   -0.32700652774036   -1.80977389609558
H          -1.44948244800925   -1.04170623940934   -1.27562692226588
H          -1.84632337174872    1.04861741893115   -1.37790922736750
H          -0.13907477894165   -0.26911143601835   -1.54874468837182
N           0.55578100740211   -2.82535607751656    0.33928224631791
H           0.79179272130525   -3.77239676499542    0.60857088482881
H           0.84772408719344   -2.68349170180098   -0.62095847101285
H          -0.84809999379149   -2.22233028328579    0.51113340580341
H           1.12863036287085   -2.17882198954134    0.89101988275854
