    26
        -50.44582847  Gyration_radius:  2.49689239938 Dipole_moment: 4.793
 S           0.87114156060100    1.55073426763508    0.57465169297944
O           0.52755059192547    1.59430077806825    1.96853654655195
O           1.54238978139539    0.32945203649100    0.17709868918127
O          -0.33089601498996    1.75780541271375   -0.29046355551727
O           1.80951276943058    2.75837959545753    0.26508438528941
O          -1.24280251229906   -1.88822263216982    1.24008937937105
H          -1.90458081213262   -2.16725141243680    1.87470751805787
O          -1.48214348219755   -0.96982052499326   -2.47430270901599
H          -1.92360582470762   -1.74768828251280   -2.81869068039475
O           0.53489120366193   -1.78126782217648   -1.05025702794544
H          -0.60978709458571   -1.27858026779823   -2.09685630214694
H           1.00889567931834   -0.99880987952096   -0.69020476364357
H           0.08563687575950   -2.17281075518151   -0.29280092245994
O          -2.07627461408603    0.04363992139698   -0.21856281293752
H          -1.97059074661480   -0.32447789849092   -1.17188328162500
H          -1.74530443901678   -0.70194332870693    0.40411385578249
H          -1.33325232330455    0.84466498337643   -0.18954993853396
O           1.22373339899604    2.47966007975364   -2.30849883306841
H           0.48636516957280    2.10406981188358   -1.79191426197285
H           0.87467066338820    3.24803881648205   -2.76553086973972
H           1.88939312554728    2.73450887813422   -0.70818345762026
N           0.82059968891833   -1.09734525787034    2.55529855512056
H           0.70026034726449   -0.08029178765585    2.51384734754675
H           1.63893087874941   -1.28981558971192    1.98900094639326
H           1.02582125820354   -1.35699718127750    3.51215163037200
H          -0.42055513879314   -1.58993197088211    1.79311889997543
