    26
        -50.44582852  Gyration_radius:  2.49693741543 Dipole_moment: 4.791
 S          -0.52865559539389    1.78376270231503    0.17736620726009
O           0.11925665164069    2.17256172790735    1.39879843685739
O          -1.36056901053534    2.99749236655214   -0.34199345565446
O           0.46663689729740    1.50123005614385   -0.90225994985841
O          -1.41329834179377    0.64511927957685    0.32289981178726
O           1.25078312274950   -1.63248169576814    1.55473764266098
H           1.99860558328655   -1.82781370408528    2.12147389401649
O           0.76996495807466   -1.91414025453902   -2.23769179070997
H           1.02783973595283   -2.82637883996365   -2.37862677184283
O          -1.40023043992019    1.86840906677312   -2.74373378897259
H          -1.65772068371695    2.70219354906896   -1.22434963269357
H          -1.07208082734559    2.38986934827960   -3.47960410019660
H          -0.61683626794313    1.53303516911557   -2.26894135939338
O           1.96570790830339   -0.40569367394976   -0.57558361711621
H           1.60817126942681   -1.01340277163963   -1.32288116597004
H           1.34937072628290    0.49044763309266   -0.68263469872303
H           1.69388055215739   -0.85968855939764    0.30369545129494
O          -0.96439235033755   -1.88159109046998   -0.30234923655666
H          -1.24914118410044   -0.95444180976749   -0.14168363552220
H          -0.02785798915587   -1.93110178479071   -1.63605026562525
H          -0.40917129126782   -2.10781212173734    0.45223059743190
N          -0.35892758143185   -0.12263378265743    2.87459693136662
H          -0.12910566868780    0.79624087838772    2.48294105470606
H           0.61353970636004   -1.03818954586903    2.11303793424747
H          -0.37609150698962   -0.04561700448627    3.88399451622739
H          -1.29967835289867   -0.31937513810915    2.55261097099129
