    26
        -50.44582851  Gyration_radius:  2.49701670805 Dipole_moment: 4.790
 S           0.09798860828359    1.60004323323451   -0.96071330918055
O           1.48731629894058    1.65339346206111   -1.32084785464599
O          -0.59519115506499    2.89121327032280   -1.49667840168116
O          -0.60009979431923    0.46852368174138   -1.64517232599428
O          -0.13161842281553    1.51053403043489    0.46734250260708
O          -1.96151977854498   -2.29949013358078    0.36231679241473
H          -2.06268716016572   -3.11951362106471    0.84799165849357
O           1.78167482031749   -1.64863229398765    0.86854772780149
H           2.55340070846299   -2.19408520617941    0.70886963966398
O          -2.93513585296195    1.65939228854382   -1.27026803272358
H          -1.54247493173650    2.72069747706036   -1.33025193798889
H          -3.48507095901567    1.61320172901427   -2.05549371141591
H          -2.24648929062867    0.97597937151842   -1.37197987387067
O          -0.72255796939134   -0.62048316682242    1.91167843311711
H          -1.66478888677178   -1.60997106716328    1.02209626485904
H           0.15934718229170   -1.00795278648844    1.94255931146954
H          -0.61061231322201    0.23294077108599    1.43661668371941
O           0.09387205140146   -1.80195200579895   -1.05047399408967
H          -0.15909537829382   -0.78825671199946   -1.37131065640755
H           0.80148979857210   -1.72056693807268   -0.31175601860344
H          -0.76550039114982   -2.10799489298485   -0.57792099500300
N           2.57414335420891    0.78896621437702    1.07625892375178
H           2.12890421787012   -0.67838087836527    0.96279181561764
H           2.33913881052926    1.14999443647023    0.14619569820592
H           1.94365137473340    1.26477633106199    1.71147481868041
H           3.52191507846946    1.06762341558568    1.29812683121207
