    26
        -50.45554487  Gyration_radius:  2.50352184191 Dipole_moment: 5.887
 S          -1.40477926353213    0.13727428649262   -0.16711755581444
O          -1.58304086941747   -0.08803810461625    1.27435319010559
O          -0.54726801461733    1.41853262094656   -0.29770564471330
O          -0.73689883998279   -0.95930375682104   -0.82975115006424
O          -2.68478490469967    0.50863973165401   -0.78538211583237
O           0.82091628140278   -0.78634523650802    2.34999218563227
H          -0.11314073526966   -0.62071554747247    2.13860212144284
O           2.88331539003301   -0.57906337156837   -1.21562517720756
H           3.67477646892206   -0.22859228456937   -1.62620930487701
O           0.84964277658794   -0.69118690499842   -2.92950545968396
H           0.73721378325567   -1.51524086089497   -3.40781322928300
H           0.17561330409768   -0.70582126930953   -2.21703165929976
H           2.18115064299124   -0.58334399839704   -1.90986537419587
O           1.29723178483381   -2.44976956714717    0.27193274152420
H           2.03772707761718   -2.01655454892360   -0.17103648331174
H           1.06508198815711   -1.56672331725603    1.81087030019985
H           0.49777952111877   -2.08538705824151   -0.14204517937919
O           1.71801579812031    1.01110682737057    0.67275391690132
H           1.49429731486158    0.39505296313151    1.42461047828089
H           2.20670498510677    0.46616511340211    0.02269041950089
H           0.42171525690670    1.28495714326611    0.08873345593597
N          -3.03358336780320    1.98914264910718    1.16560992940248
H          -3.93347826203386    2.11564414572901    1.61690799971426
H          -3.07221252695968    1.47189996450865    0.15861610999997
H          -2.51214173212046    2.85837054637260    1.10333013451347
H          -2.43985383757384    1.21929983474807    1.60008536051516
