    26
        -50.45554478  Gyration_radius:  2.50339556775 Dipole_moment: 5.888
 S           0.52374286783230    1.21617665447095    0.51630781398785
O           1.31485391725192    2.12201977547382    1.36043756923842
O          -0.59524021072585    1.94291969178288   -0.09974659448561
O           1.31391623839925    0.48014467755240   -0.44363878039746
O          -0.10960902586110    0.23060453431214    1.52705033373346
O          -2.00557432392382    0.20941070023989   -1.65874410739077
H          -1.59803422527658    0.97215623559854   -1.21512065228319
O           0.39831744186858   -3.04119453294212   -0.84640499801439
H           0.38186313807285   -3.96368679191524   -0.58853488499160
O          -1.49688743378764   -1.44706668170115    0.30231017610684
H          -0.87230113426732   -2.07692219916700   -0.11182249488565
H          -0.69354542220529   -0.50226960160436    1.04975584353200
H          -1.85131096554008   -0.89037750553011   -0.44556678962135
O           2.55874589979659   -1.79411078085414    0.08304034991371
H           2.14861268955895   -0.90631812188530    0.00709842197154
H           1.22075599968562   -2.65331543944929   -0.46167115762737
H           3.32468983327461   -1.77450632051205   -0.49445304277871
O           0.29435050895165   -0.81277906743542   -2.64869419647309
H           0.76246910718364   -0.27231121303799   -1.99140653253823
H           0.29044226355935   -1.70928523301069   -2.29025827135354
H          -1.31379965205753   -0.12659917887666   -2.26507113361736
N          -0.84267860912059    2.99903286090068    2.19354962822934
H          -1.11407842322301    2.70392320611085    1.20760992670965
H          -1.00933307013641    3.98097890528492    2.38713202865593
H          -1.27564916010636    2.39462007959352    2.88532555890401
H           0.24528177078430    2.71875535661680    2.04151600547649
