    26
        -50.45462527  Gyration_radius:  2.4334320318 Dipole_moment: 7.033
 S          -0.00019316017916    1.64609891452025    1.04623547400056
O           1.27857188334229    2.37228389228501    1.22812281691360
O          -0.02653038727232    1.01612233619648   -0.26197503196313
O           0.10530900904466    0.47162060715989    2.09374346571766
O          -1.16560379504986    2.43629805456699    1.33159611020437
O          -2.38479012336978   -1.20973720705516   -0.75850722415230
H          -3.20787490403129   -1.65961909219472   -0.56190556989653
O           1.80526812129063   -1.48124593189379   -0.97396731319330
H           2.36653699151982   -2.01663237457284   -1.53625122516290
O          -2.92620891296546    1.33789169408699   -0.30470866568061
H          -2.34689881108887    1.73975221491552    0.38092670837593
H          -2.74499064160700    1.83865430430087   -1.10284369960809
H          -2.55313951992810   -0.24819729496139   -0.57603843902473
O          -0.30824886696702   -1.76557367121882    0.88156080513364
H           0.44763624456307   -1.80773049228413    0.27741533615800
H          -0.13936693103463   -0.40150037363517    1.66061812174212
H          -1.08762261264944   -1.59810205723331    0.30979797564188
O          -0.18556676253472   -0.53705738107326   -2.35896039797901
H          -0.99316235021510   -0.99987400606181   -2.09420996484848
H          -0.16451458440413    0.23507290081953   -1.76141849503573
H           1.07781494316076   -1.12365997435463   -1.56664775913277
N           2.66521902103978    0.32720238554104    0.91661647326393
H           2.31451306500353   -0.22156413699625    0.10457221087374
H           2.08069582135610    1.34704840326808    1.00623873526675
H           2.42621600334886   -0.17210503573934    1.77051128080494
H           3.66693123962531    0.47455332161338    0.84947828158189
