    26
        -50.45554466  Gyration_radius:  2.50382126898 Dipole_moment: 5.885
 S           0.63984503875695   -0.92748540151197    0.86422535458249
O          -0.79843913653373   -0.80642886971478    0.92927029158869
O           1.09259667772014   -0.90902153643247   -0.61506184383819
O           1.33930421239366    0.18675436953229    1.51877078899274
O           1.14627868869675   -2.21163174659487    1.36868424489710
O           0.34159471673508    2.52948793420825    0.54891567791104
H           0.76597510449155    1.81219837289196    1.04879320232717
O          -2.36877399090672    0.74215686470811   -1.99249147233831
H          -2.70116770447543    0.75106969417700   -2.89093548970655
O          -2.17828569189335    1.56790973742612    0.74736443366669
H          -0.61417958851837    2.43783544843693    0.74208486546368
H          -2.44356052288353    1.49908918874075   -0.17847713534170
H          -1.78317728166110    0.70878120982296    0.96883001336275
O           0.30761357867993    1.19769636358430   -1.70380954246124
H           0.37741548301021    1.84082681744839   -0.94465854081090
H           0.77046752861280   -0.04188683127154   -1.11503024707993
H          -0.65120995658468    1.08745258925419   -1.86741069922939
O          -2.45473462631425   -1.69775761248044   -0.93118101382837
H          -3.24743239153422   -1.92654784327106   -0.44164550206663
H          -2.42951706342268   -0.19118334598552   -1.67632845573697
H          -1.77744388297364   -1.48806154028286   -0.25327928449162
N           3.41064055665420   -1.23744629062034    1.17163285668255
H           3.76180023818374   -1.23827729472771    0.21877290520260
H           4.14793944375884   -1.39854394369388    1.84979924791391
H           2.83479075858416   -0.36386471879523    1.36419801695350
H           2.51165982140738   -1.92312163490757    1.26896732748243
