    26
        -50.44582848  Gyration_radius:  2.4968710688 Dipole_moment: 4.792
 S          -1.42643164018180    1.10357389082570    0.49041403282039
O          -2.55520002360697    1.47140402035311    1.50308196288273
O          -0.17114619904654    1.01442249037579    1.20919515620131
O          -1.79423411820103   -0.24884120587428   -0.03105628587171
O          -1.42473728675223    2.08646711385219   -0.55687127328937
O           1.82810415916434    0.17863702270943   -1.80957247371086
H           2.07793789575912    0.32394340274461   -2.72337781018981
O           0.68500108668779   -2.96421793708627    0.06481277071335
H           1.39698849924186   -3.56741258248068   -0.15370911076317
O          -0.25254509669776   -1.30033226604570   -1.61464900062642
H           0.55470784163241   -0.67464166769640   -1.71473270241581
H           0.07021306617760   -2.07619779673815   -1.02353416914264
H          -0.97645591902620   -0.79579306673568   -0.96964002157796
O           1.76213699802388   -0.76416781149691    0.93335056297508
H           2.15096457552372   -0.41254366612908    0.12460474317504
H           1.04972291539863   -0.12997929307984    1.17159303084082
H           1.09552218784560   -2.20782063720882    0.57285574935347
O          -2.47692083783501   -1.02287004372365    2.40740855960860
H          -2.57799690626391    0.69964256992481    2.10127068849626
H          -3.29909895572136   -1.51803804062622    2.40311617728335
H          -2.14461483744851   -1.02697947085093    1.49024886491617
N           1.31098705949601    2.47046773448043   -0.76428375385218
H           1.64198983733913    3.35537584242958   -1.12830904086026
H           1.64046701698593    1.11450612107384   -1.40965777902132
H           1.54824246600162    2.42043808367600    0.21993059724072
H           0.28639619550552    2.47095718332707   -0.79248946518445
