    26
        -50.44582851  Gyration_radius:  2.49691509037 Dipole_moment: 4.792
 S           1.54515973373940    0.52923888988526   -0.90868666818328
O           1.33050184657940   -0.02022759751890   -2.21820532595650
O           1.72330147528861   -0.54836040894097    0.11266957189144
O           2.89777115781209    1.30719949997930   -0.92127350618940
O           0.49685641320786    1.43117917216342   -0.47526630416014
O          -2.20049254992348   -1.10940820271978   -0.75834357361662
H          -2.65621285599704   -1.80736437456445   -1.23138161158139
O          -0.76730062097874   -0.93619177827042    2.79275202463894
H          -1.53497153283312   -1.19769869210642    3.30348356051065
O          -1.51442671351593    0.94933516356181    1.16752121273400
H          -2.07229018744583    0.45896083557628    0.55337832134843
H          -1.01287086666512   -0.09203973525191    2.31750889046649
H          -0.74113050377493    1.24002110857288    0.63450773949074
O           2.93975209565585    1.16072937151980    1.72850828351112
H           3.71673968398757    0.77023065042952    2.13462153621620
H           3.03262146550195    1.53407958531789    0.01918556331655
H           2.39736008979234    0.42075528047917    1.39704345412525
O          -0.19397376981957   -2.00346887595227    0.55666662870141
H          -0.39617538784966   -1.70373348848166    1.51833641331949
H          -0.97615498675633   -1.65807429642945   -0.01076951095732
H           0.68297125928123   -1.40378041107996    0.30019201212243
N          -1.35737163063892    0.59184468008786   -2.49269968564410
H          -1.35283240538977    1.50460371179663   -2.05191096303695
H          -1.73086337558213    0.69070215081428   -3.42857107121229
H          -0.37040031659251    0.32460454068713   -2.56379534399870
H          -1.88556752708333   -0.43313678955758   -1.47547164785958
