    26
        -50.45554483  Gyration_radius:  2.50332726635 Dipole_moment: 5.878
 S          -0.07115106630298    1.37891533117882    0.33804424454494
O           0.05887068954632    2.60570770798903    1.13605772923542
O          -0.16722869562869    1.70957365469072   -1.09084515779303
O           1.29292474126561    0.67278042597639    0.52379165714545
O          -1.13108656596545    0.50527114331247    0.78626946439414
O          -0.42049359373095   -0.60654466545890   -2.50351432657396
H          -0.40468628376946    0.30652313819899   -2.17093669541174
O          -0.31090881777189   -3.06185923423050    0.80626773684488
H           0.09296457919081   -3.85343653431326    1.16412660239035
O          -2.21254160234073   -1.53875837546641   -0.70567225566458
H          -1.73149919467925   -2.27101950421893   -0.29984287222082
H          -2.00432454862985   -0.75959127214957   -0.16457653942724
H          -1.21291988835528   -1.00925569566439   -2.09236153199798
O          -0.86960254216466   -1.28957284087744    2.71189903420935
H          -0.47986863204464   -2.45877541559388    1.56965515862947
H          -0.90109867284737   -0.53776619847971    2.08262138234839
H          -1.74613817099305   -1.33873938920230    3.09889644976979
O           1.29752105192034   -1.48420617078410   -0.73542814155373
H           0.73813591578650   -1.24350811296154   -1.52547334424925
H           1.33209528285258   -0.24888789815526    0.01821376137736
H           0.75884259504168   -2.11352899875999   -0.21382341720196
N           1.67496577961346    3.37381105426998   -0.57202615492628
H           1.04126020453571    2.75207571536527   -1.15975555294406
H           2.59448583433308    2.95636193574092   -0.46448099118430
H           1.72719937343436    4.33226471360271   -0.90083800904491
H           1.05428222769484    3.22216549596920    0.36373177932312
