    26
        -50.44582851  Gyration_radius:  2.49697611904 Dipole_moment: 4.791
 S           1.30427041583717    1.33492425094007   -0.09812489425672
O           1.72591617958918    2.82152242194780    0.11906560024107
O           0.24246237383629    1.37929189316826   -1.15009797308775
O           2.45541100597949    0.60203463331408   -0.54603854582354
O           0.73517627202644    0.83065528611761    1.13559693111680
O          -2.98122913196541   -0.28780041253257   -0.54380432276666
H          -3.68612564279255   -0.93518255486053   -0.49310693761376
O           0.08285700753192   -2.56762748648828   -0.21847561137593
H           0.35293192468591   -3.34968317961011   -0.70225465920522
O          -0.80469453502115   -0.74177115791171   -1.77856426765808
H          -1.74770493267813   -0.56343946846197   -1.41181237369431
H          -0.28156701133094    0.19091166541179   -1.55292214171989
H          -0.40609892225805   -1.46891803013093   -1.17413018973553
O          -1.38362240129071   -0.71221199738711    1.46175190718897
H          -0.65245947611704   -0.05547122561774    1.43548159219589
H          -2.48824619329880   -0.33179093764681    0.32439426091963
H          -0.97873336212195   -1.54874759286391    1.20654770365325
O          -0.83621685266588    3.50450371889284    0.00383470012221
H          -0.72797818267277    2.66725172681250   -0.48497175803614
H           0.87601037045723    3.27064985827806    0.29248692570246
H          -1.08449225445137    4.16897391056769   -0.64267242090515
N           2.14578458759856   -1.66144120274844    1.02110089267134
H           0.92473145907795   -2.23279462602854    0.28140946437281
H           2.42059804805499   -0.89060681875035    0.40397534757199
H           1.82270047832652   -1.21608095008618    1.87238126066320
H           2.97031876566261   -2.20715172432100    1.23894947945779
