    26
        -50.46278509  Gyration_radius:  2.54838156926 Dipole_moment: 6.694
 S          -0.21587059914037   -1.03071421878435    0.65279335520225
O          -0.84088055084734   -0.27308599590340   -0.43497462614679
O          -0.33599348018872   -0.35129554041798    1.92664663270449
O          -0.94606204402388   -2.39634147555633    0.74217778160124
O           1.17356858255577   -1.34016802340552    0.29851474676315
O           1.93496732704833    0.95680376964524    1.64711219751355
H           1.04782546222993    0.63073164807271    1.90117761831871
H           2.39076787442592    0.15640328992078    1.37112869631276
O          -3.40774340109738    0.06424242060293    0.13605061995938
H          -2.45577171829972    0.03146412128128   -0.10023730730462
H          -3.88230627432857   -0.29110788519168   -0.61723665542565
O           1.69658332907953    2.68832430262935   -0.36073551940422
H           1.82291776033743    2.06522382296788    0.39490771240122
H           1.33133291283127    3.48770530282575    0.02110339721842
O           0.32763956286786    1.31947717428363   -2.16966056948497
H           1.29638087385867    0.23949496973738   -2.23269892800798
H          -0.29070919734746    0.83865200836136   -1.57569935157685
H           0.79016805605376    1.96347615694762   -1.58146683984616
O          -2.76975359298175   -1.44292560000180    2.27216838782931
H          -1.72755164238765   -2.20737737228774    1.34128463564281
H          -2.05214583928700   -0.88143459122722    2.60311225379952
H          -3.24443798772114   -0.88600074968359    1.62105592169638
N           1.95975678351262   -0.63593282302905   -2.04359452831565
H           2.93333408900815   -0.35161800474922   -2.00691205284875
H           1.82365354082078   -1.36295175125946   -2.73754465717959
H           1.64033015302182   -0.99104495576768   -1.06847290141893
