    26
        -50.44582848  Gyration_radius:  2.49693646369 Dipole_moment: 4.791
 S           1.78913985244939   -0.50527062755894   -0.19380031103400
O           1.06868435013494    0.34167937798304   -1.12320647999959
O           2.42612289217136    0.21663272936035    0.87206725474897
O           0.86580590498379   -1.55619271551984    0.33454549660196
O           2.88802003539124   -1.28559514122167   -0.98025341119081
O          -2.74937001090824   -1.27354005388249   -0.28957361877630
H          -3.67991260373864   -1.05508833042522   -0.21926557110781
O          -1.18913400118405    1.75501467137399    1.46738403459944
H          -1.34558503267972    2.14585044176380    2.32839648761369
O          -1.09748477495558   -0.80081244992244    1.58555713144621
H          -1.09508471800718    0.22518006451985    1.56547841110254
H          -1.82524464434377   -1.08892854675172    0.92016987501657
H          -0.18040719752490   -1.13740012264507    1.09543374045568
O           0.98623362775528   -2.84740667034408   -1.97396633761650
H           0.66182368271487   -2.48265956807288   -1.12934746705913
H           2.36974269420022   -1.84281226650304   -1.59271118175311
H           1.08303930004886   -3.79349565247458   -1.84465816015518
O          -1.52788707472696    0.80807124450897   -1.25386675266598
H          -1.58934408968031    1.42242651426154   -0.51383951581771
H          -0.56943666994320    0.60710027812150   -1.34075166946349
H          -2.32526017178339   -0.55076110332534   -0.83413327674501
N           1.07598660269022    2.62154262456523    0.61290627761954
H           1.02831123506509    2.66244990418712   -0.39876437364338
H           1.68181080194836    1.82099719543750    0.81962149554952
H           1.53114162990072    3.46243251210454    0.94586203431060
H          -0.28171161997843    2.13058569046282    1.14071588796323
