    26
        -50.44582847  Gyration_radius:  2.49684570047 Dipole_moment: 4.791
 S          -1.83628883024890    0.27176039008962   -0.22051877923442
O          -3.22484892201151   -0.25475232385957   -0.69966998523076
O          -2.00078573242109    1.62414023526062    0.23434378975599
O          -1.43909292399550   -0.63605560879904    0.89944384185928
O          -0.88858616408759    0.13316688883389   -1.30819241641076
O           1.95572435895602    1.56773309966875    0.60374792267912
H           2.33669329589753    2.23431037597635    1.17743613621215
O           1.86250114114091   -2.25794362317250    0.83235869543301
H           2.79515100765300   -2.44910405415514    0.94267674331787
O          -2.29940932254455   -2.73164757816113   -0.47127176105387
H          -3.05792347674087   -1.20267142252195   -0.86614283587083
H          -1.78234265138888   -2.16314960027541    0.12962716553332
H          -2.79600724362646   -3.33695751126473    0.08381028578910
O           0.74642104170247   -0.25553606924026    1.93337349476703
H           1.21531697422522   -1.11602372561695    1.62464648913940
H           1.19909177043991    0.50680541501516    1.41666381232819
H          -0.25987501378349   -0.37308019760766    1.52331741688106
O           1.62561823443467   -0.67082919060253   -1.21186791622255
H           1.76388663327799   -1.81355914052674   -0.05737493280493
H           0.67428729029483   -0.46449372268637   -1.34947932135609
H           2.01104727523185    0.14181472555777   -0.86558502982559
N           0.25402701800404    2.73407071358411   -0.93128372545058
H          -0.62661112138463    2.49117668881753   -0.46644401493489
H           1.28787408463387    2.06419848012995   -0.01154137657621
H           0.23644477743945    2.23008636911811   -1.81055614635380
H           0.24768653890111    3.72654036643610   -1.13151752236864
