    26
        -50.46954186  Gyration_radius:  2.39871561669 Dipole_moment: 4.982
 S          -1.27249843591693    0.89129280684473    0.34384116523560
O          -0.68574054060270    2.10414366406883    1.13108026554668
O          -0.84398864519439   -0.32572447050558    1.03702418805216
O          -2.70262668377963    1.00579919945630    0.26448652440669
O          -0.64749926734095    0.95621216553101   -0.99407094214899
O           2.79483637240489    0.13420302484004    0.31907502218092
H           3.74872866000832    0.20989634869242    0.27178752746430
H           2.42502844135668    0.91591431301690   -0.16541707515650
O           0.96231433086852   -1.95870242529524   -0.01597753581573
H           1.74514294624904   -1.38594605600589   -0.01504500950962
H           0.30586631704793   -1.46307739769908    0.51814508055495
O           1.62993449138599    2.23101017988002   -0.77731426313396
H           0.76243099816864    1.80860774337035   -0.97128243292157
H           1.43035215465263    2.94116226190578   -0.16267297359693
O          -3.02746660776954   -1.54132880998962   -0.33747637224420
H          -3.07562868056362   -0.57274580338981   -0.16224461040567
H          -1.76229905298049   -1.68333438953030   -1.36051888041961
H          -2.77766617453485   -1.92201744795564    0.50886209332601
O           1.12711654864999    0.77157188554304    2.42510187279961
H           1.85184036928483    0.54533750100771    1.81323615892986
H           0.04659379309888    1.73681610667898    1.69974716342774
H           0.46291574211839    0.07635452758953    2.29325566265700
N          -0.85005350936678   -1.46111146247411   -1.84741669300956
H          -0.74835635954053   -0.41040799738024   -1.70003922097366
H          -0.84966482938518   -1.72972568245426   -2.82465662365155
H          -0.04961237828468   -1.87419980573042   -1.29151008168655
