    26
        -50.45554492  Gyration_radius:  2.50360882819 Dipole_moment: 5.886
 S          -0.37760451758700    1.30681878002743    0.41149524476854
O           1.04134827403160    1.64055761274668    0.60074692744046
O          -1.22660800973254    2.40127588794904    0.90117049947200
O          -0.68351258001389    0.89501805733753   -0.93919237300601
O          -0.67783134263465    0.14339841891449    1.38631074680100
O          -0.66354071611478   -2.71981275555312   -1.51359224897349
H          -1.03405206235997   -3.60222607859734   -1.46896344702397
O           2.55371675038230   -0.42088487948572   -0.34140813914410
H           2.18909278033693    0.42187273077610   -0.02315062378175
O          -2.56186369248643   -0.85494406661462   -1.57739648458158
H          -1.42566857429908   -2.09219045447174   -1.52895630737139
H          -1.95947645441839   -0.14989619736331   -1.25774176325428
H          -2.85419915481067   -0.57022857822330   -2.44570922773983
O           0.64907013843172   -1.86617528471742    0.72269654004112
H           1.48376868438923   -1.43872630345794    0.38289489882268
H          -0.14711200491321   -0.72871394434850    1.13371732663635
H           0.20801980445449   -2.24490403265362   -0.06496521536304
O           0.98309079763417   -0.60482541279590   -2.53498828423020
H           2.24059916046870   -0.49574934229677   -1.26638488436910
H           0.55598591573444   -1.46158810414784   -2.40912570240273
H           0.39613934240669    0.04273538750828   -2.11134432109870
N           0.27988150411880    2.50168624616038    2.86088462461865
H          -0.58179440701268    2.59764935227394    2.13204254382239
H           0.94998716396767    2.15690216216681    2.10839169585852
H           0.56862585813980    3.36998820665860    3.29926826928290
H           0.09393733185995    1.77296259220508    3.54329971478020
