    26
        -50.45479433  Gyration_radius:  2.47133838305 Dipole_moment: 5.897
 S          -1.88287605552687   -0.14736673524870   -0.93113409929390
O          -1.97363221555922    0.00527272886118    0.60589534812163
O          -2.20641709560042   -1.62114115241623   -1.17869803784576
O          -2.85226668531519    0.69374703592666   -1.54124611927605
O          -0.50828343122057    0.10394244436668   -1.32570037415095
O           1.05527806819821    2.51232588912453    0.75307445960876
H           1.23150528829486    3.34069334141861    1.20121143621434
O           2.06190244092992   -1.49622686949370    0.58403449057501
H           2.93509406193495   -1.68787086344973    0.92862695878208
O          -0.90271907654237    2.73974803941251   -1.04782285290978
H           0.31627676816455    2.68581509721744    0.12633473077174
H          -0.72396071219742    1.84260492007527   -1.37775353117412
H          -1.86174656696131    2.79634124357120   -1.03069964249804
O           0.25497367439403    0.13172370449971    1.81319118888856
H           0.57276352702490    1.01474986535979    1.54104980569382
H          -1.07155744959474    0.02938020928164    1.08977939627248
H           0.89430644604535   -0.50700662575402    1.43980847970665
O           2.13260982904522    0.57190989401526   -1.00953419869644
H           2.01049026443597    1.34715630181215   -0.44172365923528
H           2.18005951876291   -0.77304992191702   -0.09287421779419
H           1.24895241032267    0.39446147752719   -1.37170243828024
N          -0.51928826804004   -2.83942453981803    0.30015691730536
H          -0.83627695533629   -2.69709458994584    1.25106281445687
H          -1.50884166475632   -2.17321781516415   -0.62035182390585
H           0.41070868027467   -2.43409035691031    0.21229699024757
H          -0.45705482116658   -3.83338275234353    0.12271796839019
