    26
        -50.45273922  Gyration_radius:  2.45693457523 Dipole_moment: 6.233
 S           0.66158938928309    1.04009681230249    1.67097842823547
O           1.70997131371902    2.00540827665917    1.89933014351799
O          -0.15594914983619    0.65808592496235    2.79104887737283
O          -0.17888427087137    1.45183355193395    0.50936858028669
O           1.46669587773520   -0.21501361715326    1.16112784881366
O          -2.32234206102274   -1.61407267355742   -0.32042586893112
H          -3.08988620037084   -2.18540544352363   -0.36620061325792
O           1.36415279425824   -0.42725097859783   -2.15751108479210
H           1.50031533059737   -0.63350258833617   -3.08294364441169
O          -2.38570195986794   -0.51867379389752    2.07573081395297
H          -1.58624796466472    0.01832205628259    2.29054618222198
H          -2.37149737469857   -1.15107410407179    0.55575246723780
H          -2.49614974144392   -1.10464537311868    2.82718148052056
O           0.34782950859084   -2.17619691231490   -0.11642741726820
H           0.77230730472867   -1.83484840543580   -0.91610385015415
H           0.94273561562997   -0.99332342752034    0.82910950071871
H          -0.61258499925867   -2.05500160770338   -0.22949086869919
O          -1.08984852425638    0.37262421788096   -1.75501280421520
H           0.41544355824831   -0.11939264177248   -2.07379859002331
H          -1.66378301944608   -0.35568244425526   -1.46793426751324
H          -0.92974924444418    0.87595847180347   -0.93327754114517
N           1.98811880558981    1.80842969222766   -0.68306360003262
H           2.12075667728104    0.91188010534686   -1.18561708850945
H           2.25373871681135    2.61257300959992   -1.24170086617907
H           0.93522701122314    1.80552553770333   -0.35431676239633
H           2.40374260648212    1.82334636455744    0.27365054461603
