    26
        -50.45559363  Gyration_radius:  2.42169529581 Dipole_moment: 7.648
 S          -0.72470086457101    1.53096416398536    1.25539751764337
O          -1.82761344975342    2.38408402675761    1.53902443016152
O          -1.05317536458540    0.15340108609830    1.91258151433347
O          -0.52787834382410    1.29055386999133   -0.19050977621456
O           0.57531054902398    1.96310765142561    1.82071348360533
O          -1.62675454887617   -2.14683214338523   -0.57591136748682
H          -2.24545003490613   -2.87711554765268   -0.53803759675722
O           2.40378264123049   -0.91797327411668   -0.74266431550142
H           3.01503059546457   -1.48473740291038   -1.21399883834759
O          -2.93191038681152    0.14952176171375   -0.17412662691506
H          -3.25839086749171    0.39473502989443    0.69545502622367
H          -2.15297009167422    0.72152835602720   -0.30112122962953
H          -2.15589884668070   -1.33008238115166   -0.39210466829022
O           0.50165785287671   -1.77488375179076    1.13352673444265
H           1.26178447822549   -1.51218279892069    0.59215879018392
H          -0.37180335367030   -0.54196919076009    1.70426636027783
H          -0.19356735056796   -2.07490904477079    0.51889210147110
O           0.15873348340110   -0.56934823836748   -1.97121428667903
H          -0.45919727904094   -1.28703945276654   -1.76411993005755
H          -0.15797538562903    0.17463079496012   -1.41882361847908
H           1.57791608785749   -0.83881814463886   -1.31138299799191
N           2.08952654352537    1.72440735140158   -0.13819543265093
H           2.42116901597951    0.74962450053002   -0.25376623120729
H           1.34608711377369    1.89220625610302   -0.81977746544833
H           1.49197145585691    1.83030228341477    0.84674042084610
H           2.84431634086820    2.39682423892830   -0.21300197753191
