    26
        -50.45514719  Gyration_radius:  2.45719268772 Dipole_moment: 5.620
 S          -1.40692309082377   -0.77694204557482    1.13799508101948
O          -0.87349613640423   -1.57268609681223    2.33164984649396
O          -0.65658708707308    0.44247240880637    1.00229797888718
O          -1.08830097760354   -1.67912300217575   -0.08608989362712
O          -2.82561021756891   -0.63402935067310    1.23722492871107
O          -0.71053474258191    1.46291985922367   -2.22179605500900
H          -0.97420647291682    1.78083841213989   -3.08683009366418
O           2.51227608562840    0.63955955632817    0.14683772236344
H           3.34534342861184    0.98389595038448   -0.17848261094583
O          -2.89805772635498    0.23962310012624   -1.29714214620706
H          -3.01281960877746    0.09508518702657   -0.34023717001713
H          -1.52806256012442    1.10836823185578   -1.79908499404559
H          -2.88899090346950   -0.64201054889973   -1.67891197099281
O           0.67645554782808    2.50380438715224   -0.01822582374044
H           1.87457394791997    1.40808021282221    0.14880431600245
H           0.27805879239352    2.38366766804037   -0.89363470004718
H           0.09597292751254    1.98572399804509    0.56335724190251
O           0.78974951426013   -0.69180877134350   -1.47586878274537
H           1.45900997368700   -0.30394318557573   -0.87581680130669
H          -0.30074989815171   -1.31509269174252   -0.63487453333569
H           0.31701621746594    0.07434629517030   -1.85537873629487
N           1.65227156914607   -1.49833810516298    1.96367365511887
H           1.93124629931952   -2.28924847240624    1.39738170592111
H           1.86711124014777   -0.64493267937808    1.45036654654233
H           0.17471401993301   -1.55583807263963    2.24269962655162
H           2.19053985799940   -1.50439221473339    2.82008566246452
