    26
        -50.45601915  Gyration_radius:  2.44962570987 Dipole_moment: 7.015
 S           0.52012157916623   -0.86061340779063    1.75048051136843
O           1.43838632194240   -0.10407205450156    2.57443497290244
O          -0.57910977409913    0.02530709135278    1.29120160094372
O           1.16945153198973   -1.51297809580553    0.62832548074937
O          -0.16675752195581   -1.95440560454474    2.62671434397664
O          -1.33335561945921   -1.26268906944621   -2.16316128890384
H          -1.45231683700014   -1.79157213008198   -2.95274730120872
O           0.80448296426491    2.23118451765221   -1.15696592886258
H           0.80620258232611    2.91351170309993   -1.82955066814106
O          -1.12004239804202   -2.80905178406287    0.25363100744176
H          -0.17578278588312   -2.59995920943938    0.16809066648231
H          -0.74296075387157   -2.41570540134717    1.98845368916938
H          -1.53986188334206   -2.29449916540821   -0.45152474399678
O           1.20461195595454   -0.54647544720164   -1.84621914598624
H           1.32234414476422   -0.95361901112026   -0.96434983412398
H          -0.36456010996133   -1.06099126438318   -2.10731825203537
H           1.27727614906985    0.40545698824087   -1.69940087049987
O          -1.55590583158096    1.16195570845786   -0.93445455064513
H          -1.68500017924951    0.42588783010263   -1.55538544785859
H          -1.38848527114122    0.71038178104807   -0.08630843999313
H          -0.12892772837757    1.85578280808825   -1.13729004102112
N           0.75625826814572    2.15002947073462    1.52713748007461
H           1.02167742381032    2.36061985330115    0.54106206299395
H           1.43526329532285    1.52110143134097    2.01636960682369
H           0.52404017258662    2.98029755294136    2.06089082876512
H          -0.04704970538148    1.42511488877245    1.45788428158525
