    26
        -50.45987904  Gyration_radius:  2.52585801562 Dipole_moment: 7.498
 S          -0.16286075471467    1.51815572768341    0.12533249290750
O          -0.16659385042336    0.55685421822777   -0.99199486412188
O          -0.55044545982862    2.84073724707183   -0.22732765499976
O          -1.22695306734403    0.96638259351846    1.16275532566120
O           1.12515725899962    1.41947474602277    0.83439221620477
O          -3.56073567437988   -0.75874506430554   -0.03624558547887
H          -4.02710623220220   -0.40433828767376    0.72229733480804
O           3.26138851732183   -1.60901539879717   -0.35031480981913
H           4.21253481754056   -1.56996388088212   -0.24062744392209
O          -2.67174307251345    1.41729170666270   -1.40289415810078
H          -2.48284995301669    2.25971438538020   -0.97483484271325
H          -1.79033217922849    1.05668692310949   -1.58510382314421
H          -3.36081265947232    0.01310732757893   -0.60805930941905
O          -1.04027581747324   -1.55380259461054    0.29653895812158
H          -2.01185045063154   -1.58416387782443    0.16211811739020
H          -0.70615965076990   -1.01251743381557   -0.44770204034215
H          -1.28379111728650   -0.00175005129776    1.02707543155516
O           2.47004915807432    0.65946610502558   -1.42183269314122
H           1.52091957475725    0.53738502962491   -1.60067452513967
H           2.46667345904982    1.24700180604409   -0.65409970286625
H           3.01200037623319   -0.81360273199594   -0.89342009355089
N           1.39535207338370   -1.05763491366617    1.44514047291785
H           2.17361045868424   -1.40532972816913    0.81798515026003
H           1.59493666159647   -1.23735495539579    2.42349959609858
H           1.30475397751026    0.01430725433179    1.25528951030057
H           0.50513358614585   -1.49834618186465    1.16270692052494
