    26
        -50.45987909  Gyration_radius:  2.52581200815 Dipole_moment: 7.499
 S          -0.38163317393566    1.27313921064533    0.76133762249329
O           1.07665446291274    1.48361791499908    0.78534388301118
O          -0.75619913345412    0.67994176041433   -0.53494579563826
O          -0.63328461368408    0.13587366671944    1.83658268852763
O          -1.15455223440537    2.40506136937673    1.14233018196731
O          -2.84438281128347   -1.97651154199505    1.12261687688894
H          -2.92309461577612   -2.01384868380552    2.07702914945011
O           2.87848235759849   -0.16519125417371   -2.24328616161147
H           3.72226958450149    0.19128017994377   -2.52466113473680
O          -3.23718016054542    0.63585520486612    0.47896242736460
H          -3.03240619062958    1.35740916524006    1.08397980765636
H          -2.51894014675199    0.67871675637356   -0.17095951304912
H          -3.12425646742462   -1.07081158461007    0.86945922530847
O          -0.40339934151166   -1.84905592837233    0.06373852098128
H          -0.55233499834418   -0.72164207645991    1.37064075144562
H          -1.27873237285078   -2.19934057690599    0.33577812256585
H          -0.61192015147685   -1.05973311993720   -0.47664844475813
O           1.21065413329471    1.84357691320238   -1.92204962150031
H           0.35053304473859    1.42945415621073   -1.73111369987149
H           1.47838666382090    2.18318163223185   -1.05741919777735
H           2.23213219804936    0.59029578922198   -2.28021285057329
N           2.11768453291344   -0.79057117155824    0.21435651477445
H           2.52070185936598   -0.66512622741439   -0.75607121554579
H           2.81871275984030   -1.11680343426628    0.87121146748429
H           1.72701778197519    0.18515919745595    0.51224950468252
H           1.31908701304460   -1.44392730738216    0.17175089044818
