    26
        -50.45987899  Gyration_radius:  2.52568698147 Dipole_moment: 7.497
 S          -0.08315529811800    1.41561828988135    0.57888545070149
O           1.18886813095156    1.59494124933921   -0.14322374863034
O          -0.97432290741206    0.56431431389595   -0.22964975244141
O           0.30230329303553    0.54332268931040    1.84503322132308
O          -0.67713091023477    2.61954498320264    1.04936900889076
O          -1.79306768992467   -1.62548182329765    2.72035831037164
H          -1.40625621365232   -1.45272806539621    3.58005606637876
O           1.47517984904443   -0.70880024343795   -3.26514424963544
H           2.05131087830388   -0.44021604968458   -3.98215522672338
O          -2.66611967279963    0.79306003207627    1.83667923675914
H          -2.26349869714348    1.62416488475811    2.11183045553953
H          -2.34592915027393    0.67957413086283    0.92851201218980
H          -2.23625766402383   -0.79053029798050    2.45728980755463
O          -0.16551073584566   -1.78236304847216    0.61769993011135
H           0.22609555108368   -0.39620510893836    1.57927169922727
H          -0.77413552794503   -2.04635512224217    1.34079150343620
H          -0.67163442508847   -1.12452178269786    0.09841048050564
O          -0.00517887021389    1.35885752192241   -2.59126917440309
H           0.82687170744194    0.03490310280171   -3.13744855137152
H          -0.63454004782817    1.01453378396839   -1.93317112368249
H           0.60980176866705    1.87012974757572   -2.04806318219044
N           2.02589523202242   -0.77072182274155   -0.67612405436084
H           1.90861064226425   -0.86678458472483   -1.72347878501305
H           1.74104904579621    0.25468652291835   -0.42905136374616
H           1.36144429261764   -1.40040829958521   -0.19821202602281
H           2.97930742925393   -0.96253499332219   -0.38719594478308
