    26
        -50.45987911  Gyration_radius:  2.52561733086 Dipole_moment: 7.498
 S          -0.64922989373755    1.30488007461293   -0.46764278052651
O          -0.58771233176533   -0.07415227802150   -0.98420037199495
O          -1.16471381313380    1.17560583592027    1.02570442159844
O           0.72280652182471    1.82678316585270   -0.33773578193882
O          -1.54945858037053    2.16001548752460   -1.16197618458395
O          -2.96140181620844   -1.31723461866884    1.65770457833022
H          -3.32307715504485   -0.71852898514452    2.31278167395929
O           3.42672024497255   -0.91714104442229   -0.87240991764329
H           4.29913446413086   -0.64783641472449   -1.16337804772725
O          -3.25497566129415   -0.03105673615121   -0.71985692875102
H          -3.27317134410219    0.92975469693488   -0.79210709805582
H          -2.37685665308107   -0.26398141084507   -1.05855007763933
H          -3.19083090406789   -0.92666968172744    0.78734645405729
O          -0.32235945997396   -1.34568583911993    1.29442082427094
H          -1.22285170945611   -1.62091234724858    1.57037670790871
H          -0.39201442830346   -1.21136986336773    0.32717121576441
H          -0.90925397274036    0.28430843456413    1.34064793609320
O           1.65276775770954    0.28651437856364   -2.39732389771471
H           2.78917342399878   -0.57584861751432   -1.55569368607517
H           0.79441357728670   -0.08514632692868   -2.12742242713970
H           1.63122355516660    1.17175728979791   -2.00942062137598
N           1.98606140407881    0.11432283815625    1.09477190639045
H           1.26739181874885   -0.56630253118051    1.38913505853028
H           1.48110910027321    0.89872782601082    0.52609580034342
H           2.46935301416116    0.50196101257165    1.89818528312209
H           2.65775283093738   -0.35276435544756    0.42337598080018
