    26
        -50.45987914  Gyration_radius:  2.5257462168 Dipole_moment: 7.498
 S           1.11897198530759   -1.02463065019040   -0.20647253484881
O           1.55268224246192   -0.55462082411446    1.12115287040145
O           0.59992812580579    0.12290163209944   -0.97225087935359
O           2.07458382755393   -1.81834085023562   -0.89974703925421
O          -0.14032222000461   -1.93984487055658    0.09155438602657
O           0.50269976257208    3.12448694261408    1.82499388145689
H           1.01307683087332    3.63304630037320    2.45677797172628
O          -2.49566232327382   -1.76699584234772   -1.97610959947782
H          -2.63564008531848   -2.66995910293410   -1.68710382967652
O           2.18449632304467    1.93705905167366    0.18705245545891
H           1.62382140729863    1.51227936733133   -0.48601587697813
H           1.14688871535611    2.81666338570141    1.13215049141355
H           2.47975240621994    1.18683149680759    0.72047192733836
O           0.07168023659336   -1.69577594052364   -2.86933243216863
H           0.28766261318204   -0.84479885892965   -2.45790290818915
H           0.75621924466914   -2.28490872219174   -2.53318996615500
H          -1.62523583589525   -1.76626555030445   -2.42893121122099
O          -1.88738842941944    0.06761255917368   -0.14241980810964
H          -2.39520046579374   -0.44591921155007   -0.80658463508626
H          -0.92660922409640   -1.35617179544509    0.08585043267382
H          -1.09274681317939    0.37513162751118   -0.62464974204496
N          -0.46508973209183    0.67731351672583    2.11695459295338
H          -0.18625751285534    1.69812809244395    2.10943022571466
H          -1.22870270880354    0.52596995617811    1.43840905493331
H           0.40455254618742    0.11984290961734    1.76111778941354
H          -0.73816088636505    0.37096539110072    3.04479438305604
