    26
        -50.45462545  Gyration_radius:  2.4333894583 Dipole_moment: 7.030
 S          -0.37836254624058    1.90013929755264    0.23117199472231
O           0.61169255976575    2.73903542851364    0.94646252467427
O           0.24863321983522    1.75918539504793   -1.20931177243468
O          -0.38972964584139    0.56247638074095    0.79650947323476
O          -1.68157874597570    2.49593300522106    0.12760805872192
O          -1.95028160637899   -1.73948294457649   -0.94476849596405
H          -2.54636891544686   -2.05747695304859   -1.62451208356384
O           2.02397801269142   -1.46637207986112    0.39992740693710
H           2.63927173776313   -2.14931872708666    0.66982882017986
O          -3.21191442254819    0.34171905999947    0.08807412193843
H          -2.39120633652364   -0.94114510898441   -0.55175024937081
H          -3.32169028218563    0.19950711994627    1.03058532458835
H          -2.69990910186765    1.17847927575533    0.01820473394290
O          -0.34557478857573   -1.99484382611758    1.33777136231833
H           1.14141842568449   -1.70801198258309    0.81343165178486
H          -0.48718968710929   -1.02929796886558    1.37457766981855
H          -0.91255930744238   -2.27394440807690    0.60484883501326
O           0.41109478996503   -0.74354824230130   -1.80642186620681
H          -0.45550228917587   -1.11838856632409   -1.54019235591468
H           0.24019034139521    0.79667653344084   -1.49772704378024
H           1.04278806565509   -1.06720015128685   -1.14741447195501
N           2.52063605640228    1.24230919045293    0.38265279522962
H           2.25155244961662    0.24818208088754    0.53383425379751
H           2.57923922282494    1.41175146363087   -0.61908574877826
H           1.65954290982606    1.96054551854440    0.74618425601265
H           3.40182986388550    1.45309122937954    0.83951077505237
