    26
        -50.45987911  Gyration_radius:  2.52566101956 Dipole_moment: 7.497
 S          -0.38481258645395    1.27014329127960    0.76378014952078
O          -1.10414185525462    0.30524687313856   -0.08720642446558
O          -1.13326744451503    2.42860225883947    1.11236655643153
O           0.20695166286495    0.55011194860634    1.90528048315127
O           0.86209030332041    1.74346640214128   -0.09271853378853
O           0.51860724611726    1.63602210845037   -3.21054250544111
H           1.14618514068648    2.35907505290747   -3.16778566280758
O          -0.05163653587248   -3.31383745769797    1.53583680994319
H          -0.04031087173543   -3.85109770953351    2.32925388845766
O          -1.76129755249865   -1.34892675233171    1.90722447136839
H          -1.80716917937537   -0.88933286743135    1.05020215869730
H          -0.81018675218628   -2.67899090179216    1.64203681323573
H          -1.24214767981740   -0.73792134541727    2.44730872047488
O           0.89285690466068   -0.45767728102255   -1.60639006481826
H           1.06914832389118    1.02103882095974   -0.72057763501458
H          -0.01603003980330   -0.42103476019569   -1.24426784152873
H           0.85745840969518    0.09397539382082   -2.41706488913267
O          -1.57619794770620    2.42048093716900   -1.66447793180872
H          -1.47714970165486    3.02934959575123   -0.92414634374027
H          -0.29613264248260    1.96702175344888   -2.77542646418985
H          -1.69723299524892    1.56104696870218   -1.23225826292569
N           1.59866995498670   -1.34806346087837    0.88532180988496
H           1.06422420863165   -2.22985664416429    1.12332376894175
H           1.55793046314851   -1.18773465623569   -0.13402350912979
H           1.06391422135583   -0.52642227073988    1.36779255579800
H           2.55967695527656   -1.39468529775791    1.20715788290107
