    26
        -50.45987910  Gyration_radius:  2.52557827964 Dipole_moment: 7.499
 S           0.99592460991962   -0.21802649890489   -1.14168759467365
O           1.05116542014161   -0.32890358762210    0.32701895251650
O           2.25368397514670   -0.34157255484092   -1.79480802444279
O          -0.05453177585370   -1.11884445389349   -1.64845682486630
O           0.44241931780809    1.23771069246751   -1.43640509196224
O          -2.23138482942273   -2.63347911638949    1.19709015672085
H          -2.67709162984657   -3.46650419102024    1.03703040777343
O           1.03171709297665    3.40976447692627    0.74718888809133
H           0.99657360691909    3.98813397753148   -0.01614957253834
O           0.26785322896448   -2.88356112717958    0.41487522560225
H           0.18321137651938   -2.78050325376989   -0.54265042742378
H           0.70002738739234   -2.05285039557476    0.68097042502018
H          -1.26350751102992   -2.80240827824781    1.04048549353085
O           2.93962533705518    1.56567700990710    0.15379797578709
H           3.15090323011950    1.30966369562479   -0.75091724179881
H           1.81094328362340    2.83078670392532    0.60456856382262
H           2.43959992470491    0.80600024506165    0.48986656566079
O          -0.77115889103199    1.45719197592038    0.93390384387827
H          -0.29577596532128    2.29876664370543    1.10280481478251
H          -0.09093018644121    1.50398700784225   -0.65956578476615
H          -0.09476582928893    0.76197828564977    1.06688732951514
N          -2.18590358159564   -0.49547795632315   -0.36394899065855
H          -1.92548682211133    0.33339646387751    0.19429962068071
H          -2.99466557956345   -0.30200156961291   -0.94513770325438
H          -1.32074295594032   -0.76408460631831   -0.97452115133101
H          -2.35770222381990   -1.31483960874831    0.28346012428046
