    26
        -50.45462547  Gyration_radius:  2.43336304813 Dipole_moment: 7.031
 S          -0.52332632685552    1.67207871248577    0.85842574770511
O          -0.37167077987158    2.00588683853943   -0.67565825219895
O           0.52743721374170    2.50588300836778    1.48790603800248
O          -1.85681168776831    1.99265625257478    1.28629892128162
O          -0.18577921326079    0.26658430827717    0.99867551271390
O          -1.91216588386685   -1.83375441245405   -0.83807370376700
H          -2.64740770888003   -2.09946447489796   -1.39242723420142
O           2.21503854407000   -1.06770441924939   -0.59976181200361
H           2.96531167937377   -1.65239393346929   -0.71397811190005
O          -3.03522012149525   -0.36074119131702    1.04829511972499
H          -2.82223962711200   -0.73964283047376    1.90365323675123
H          -2.68189052998937    0.55632959460155    1.08477684584152
H          -2.30339015230775   -1.25899117734269   -0.12897173896941
O           0.35091660566646   -2.28022328340691    0.75241102951331
H          -0.37859904667311   -2.49069638506475    0.15236719559768
H           1.54678960030452   -1.57691368016706   -0.04981903555471
H           0.10701761997212   -1.40115781383357    1.10089515400870
O          -0.09060843577892   -0.19733904804464   -1.98446086064989
H           0.75273185890391   -0.52863143411596   -1.64220472803448
H          -0.77370923268339   -0.79513487384579   -1.61241134981784
H          -0.34873539491896    1.15763652954334   -1.21389516105128
N           2.33361651459186    1.61180550764850    0.02485593654841
H           2.05078492358335    2.02008519530923   -0.86334096005847
H           3.27985100958721    1.88695412248815    0.26690926409705
H           1.54783777952684    2.03043193313775    0.79745271080440
H           2.25422079214023    0.57645694470912   -0.04791977438414
