    26
        -50.45731620  Gyration_radius:  2.44451503173 Dipole_moment: 6.859
 S          -0.41842577442490    1.85080007109514    0.63522180326258
O           0.71310594912846    2.73768938961329    0.79288692678550
O          -0.87161715864859    1.74228091012924   -0.74049220271299
O          -0.07986055470684    0.51368599535364    1.18661463938935
O          -1.60266394642028    2.37258680060023    1.50406173583324
O          -1.95407215213496   -1.99589962228922   -0.62080190874824
H          -2.43080627769083   -2.82003909961631   -0.72441208412368
O           2.29069052841172   -0.91088733601051   -1.11229964055169
H           2.84828843971446   -1.01520691480396   -1.88439331575689
O          -3.02971675860915    0.51017558702678    0.22297577449600
H          -2.31789813678112    1.73697296008252    1.29741061822959
H          -2.49488160305965    0.97138097398988   -0.44198979144160
H          -2.79211023148238   -0.42337876519279    0.11135967953552
O           0.29776984172118   -2.11281291430756    0.79812891286150
H           0.08603656925047   -1.19977061972690    1.06806688970271
H          -1.18633688961734   -2.17800031052164   -0.02996976845421
H           1.03879402396477   -2.03507431118544    0.18680722204032
O          -0.07875206045161   -0.42086815598244   -2.01352861517234
H          -0.34479824625920    0.44857119091475   -1.64301760694894
H           1.36869437777426   -0.71987114926116   -1.47364607922046
H          -0.77080369321005   -1.03144498525736   -1.71314612978143
N           2.41092449840406    0.79206796212320    0.92616645953537
H           2.17330855197688    1.78646377135089    0.71709419254893
H           3.13776232955561    0.69061862701542    1.62569555460083
H           1.42581215463328    0.49451856531112    1.26044278126594
H           2.58155623896255    0.21544138955301    0.06476394282798
