    26
        -50.45987898  Gyration_radius:  2.52550509948 Dipole_moment: 7.502
 S          -0.83451329263015   -0.05510470521193    1.28172987678000
O          -1.74340894005977    0.81096319379638    0.31422634191490
O          -1.67660326651006   -0.60230930204345    2.28928297715430
O          -0.17896696749640   -1.05348685954805    0.41800810807763
O           0.18282065431401    0.89103808925996    1.77317677577661
O          -2.77132217416195   -0.62896940860992   -2.27519213358092
H          -3.49442477296007   -0.00992040466403   -2.16306223958528
O           3.62775510429402    0.42301026517342    0.02820292910320
H           4.41832009943812    0.70530808162266    0.49036225052846
O          -2.65607634489264   -2.01356292688057    0.06227734004593
H          -2.95055663521924   -1.64206122039168    0.90124810095635
H          -2.81270692598890   -1.22695491788999   -1.49841845664754
H          -1.68946783331951   -1.98980900178984    0.13441195674189
O           2.16664458592418   -0.98889944919621    1.69914249871313
H           3.17517148136224   -0.23014873802240    0.62692344266881
H           1.74239963738953   -0.29495375930472    2.22181836561795
H           1.43036480747187   -1.33096146700167    1.16192670686032
O          -0.29106987881365    0.24792854499636   -1.85607607096285
H          -1.09802492307480   -0.06327694998476   -2.31960602279038
H          -1.33912519158667    0.76406061272871   -0.57649306618313
H          -0.07830613609865   -0.46946789970949   -1.22472479713309
N           1.37879019515543    1.77732031439480   -0.31613590011047
H           2.34267663808338    1.34224593312591   -0.27791059434426
H           1.42737539367833    2.78841099117248   -0.38439959287419
H           0.85391531516388    1.37817143933087   -1.11083712575774
H           0.86833935056291    1.47142955465333    0.60011832904781
