    26
        -50.45987901  Gyration_radius:  2.5255829316 Dipole_moment: 7.500
 S          -0.98211881289887    0.76083799368430    0.89454999948711
O           0.14627837571157    0.74690483313633    1.84231691086512
O          -2.22902357778552    1.15140053295791    1.45704370563747
O          -0.57843816364474    1.85123827643408   -0.18264127998633
O          -1.00922794951681   -0.52078590327918    0.16706260347097
O          -1.35257584850822    1.21205094846832   -3.15532279029578
H          -1.38320355293749    2.16862494721338   -3.20637829179760
O           2.49008230774267   -2.31573139461229    1.33292062883948
H           3.01371723777501   -2.62118075628940    2.07497324364008
O          -3.07636499258669    0.55393813964325   -1.15797717638877
H          -3.27435980692448    1.14761300838611   -0.42523672984244
H          -2.07280138648625    0.95713987082672   -2.53972269411445
H          -2.49888621402368   -0.11287670891077   -0.75545269460990
O           0.02019807775344   -1.96475028390535    2.16784906975505
H           1.54209980242942   -2.34098876605671    1.63376391943831
H           0.08439992881723   -1.10847339954528    2.61207037733716
H          -0.48848011418907   -1.75071332067686    1.36591376927651
O           0.63517690666804    0.08970114945589   -1.78253695987998
H          -0.06391054591905    1.39073020983318   -0.87707638615701
H           0.03237752882691   -0.45172569035556   -1.23291810294164
H           0.08117114256957    0.38678461313597   -2.53602891548462
N           2.22036480433923    0.16547286147949    0.44910356162712
H           2.47774650413132   -0.81631273870332    0.74873324313709
H           1.88666613952218    0.14901468777310   -0.52801122829943
H           1.37883426316197    0.46652924243603    1.07753007746451
H           3.00027794597931    0.80555766745731    0.55547212982274
