    26
        -50.45987912  Gyration_radius:  2.52558649148 Dipole_moment: 7.498
 S          -1.12003381641172    1.02320880188966    0.20511171260888
O          -0.76432074089964    1.42326476331355   -1.16784678980356
O          -2.34291902574299    1.56721555650754    0.68715426629633
O          -1.01142700465595   -0.44245725781031    0.31773783735848
O           0.05091833613992    1.60517399523211    1.10091168995686
O           0.71697511006544   -1.51163545826098   -3.24750116209353
H           0.64488789923480   -1.47654932992185   -4.20240137461770
O           0.97769225246151   -0.18900886329149    3.50128087722601
H           1.19302347100619    0.66551008915256    3.87798463953347
O          -1.64129690384466   -0.93859189071923   -2.23219018577358
H          -1.65770167043763    0.02497957524876   -2.30823404824302
H          -0.21184197563551   -1.44649692587351   -2.89695606270653
H          -1.54310741471303   -1.07487058308561   -1.27320692918643
O          -1.66726662681651   -0.04815855910732    2.88673997902715
H           0.00092536657289   -0.19844486162633    3.40867105196166
H          -2.10791501603929    0.78215327481690    2.67441971336359
H          -1.58372054886292   -0.48349969344664    2.02443814207813
O           1.53323067237063   -0.61098485810006    0.93006372858153
H           1.58542685041441   -0.65608928065772    1.90881902683675
H           0.62401796640244   -0.90619625921093    0.71858890750243
H           0.75100018095293    0.92141237274132    1.13684497495906
N           1.54558566999773    0.40081521544464   -1.61470453542350
H           1.36584012390138   -0.37094713964548   -2.31615435918786
H           2.24540925769357    1.05478461964938   -1.94917205666909
H           0.58691118289891    0.90058971891739   -1.45716354162433
H           1.82970641399580   -0.01517705216721   -0.71323551194412
