    26
        -50.45987907  Gyration_radius:  2.52574262995 Dipole_moment: 7.498
 S          -0.84088617689875    1.17731730673557    0.50256336935868
O          -0.70705489871680    1.48186242617833   -1.04724797073137
O          -1.98149237129689    1.87870295939479    0.98285647329811
O          -0.93013830325208   -0.29002483855400    0.60964719002724
O           0.44306658246558    1.61958309641795    1.07491903213283
O          -1.98364419525601   -0.62898218348042   -2.98710486428119
H          -2.07769065498371    0.14516296199595   -3.54425235626240
O           2.82559139344825   -1.34843018176497    1.88244611079789
H           3.49473189000104   -1.22820246247106    2.55774094967075
O          -3.26508951131850    0.00253909991468   -0.67361510128995
H          -2.56093121072155   -0.46732234994631   -2.21037191978518
H          -2.58619478965304   -0.36836225836235   -0.08909855401733
H          -3.35653225950276    0.90925103401834   -0.36044545691630
O           0.53720293473459   -0.46928735755146    2.83715925018951
H           0.63363096208684    0.48616754967784    2.72594428144049
H          -0.12334571903067   -0.69684521537727    2.15917798219852
H           1.95295019230663   -1.15596384128151    2.31966594586541
O           0.28525402582381   -0.93041832822374   -1.62449525559475
H          -0.41536847109359   -1.06124446468069   -2.29895948094071
H          -0.30616121786851    0.68999281691502   -1.46100144995558
H          -0.17295474750956   -1.05148030931561   -0.76778356225751
N           2.25123248456808    0.26311296245080   -0.13827732089447
H           1.74263382753397   -0.26485258990311   -0.86562291880316
H           2.99837347700067    0.81502483669599   -0.54627498671998
H           1.52572236804875    0.90227155631314    0.37025308260935
H           2.61709440908687   -0.40957222579433    0.59217751086123
