    26
        -50.47393308  Gyration_radius:  2.40331899642 Dipole_moment: 4.921
 S          -1.36011647042818    0.68388259122143    0.68489161564437
O          -2.37788013437038    0.37833441986196   -0.29152366021781
O          -0.25846912476279    1.47072657425864    0.10068764063645
O          -2.00928894600941    1.56971568633770    1.78350777685046
O          -0.82505160458168   -0.51412237851585    1.33037917826440
O           0.57465624226474    0.54415643523217   -2.24457159127182
H          -0.18239759495702   -0.00427214071975   -2.51539420701271
H           0.24377945133420    1.05549706795257   -1.47380240949985
O          -1.61376876267599   -1.10622614328204   -2.25561012313021
H          -1.96299101104317   -0.53633646193541   -1.51744568566195
H          -2.36157885960750   -1.27370825845185   -2.83112091252756
O           1.63548527452957    0.34463726023266    1.42227559193266
H           1.08013769555011    0.92528130796366    0.84256023649713
H           0.95102859003833   -0.26108598974626    1.76077827480496
O           0.29084918968820    2.33984402156475    2.88337733407058
H           0.95651350636224    1.67067810311461    2.65357707176808
H           0.46810944214184    3.09872704339297    2.32178096219753
H          -1.24483134619621    1.85189954954192    2.32778464015634
O          -0.23312878962736   -2.48123854941499   -0.32652266947772
H          -0.78126293804791   -2.24766383551520   -1.09583886160782
H           1.15693700427472   -1.84152262871537   -0.61318638257079
H          -0.54638287227758   -1.87969746366888    0.38751543854730
N           1.95276340754090   -1.14099806644082   -0.79665917605798
H           1.54265926308736   -0.44496543804254   -1.50165559484395
H           2.79864448763933   -1.58630572786970   -1.13198444576695
H           2.10558494013537   -0.61523697832524    0.09619996829970
