    26
        -50.45987861  Gyration_radius:  2.52513352922 Dipole_moment: 7.508
 S          -0.16070651956947   -0.12524427138720    1.51643606246760
O           1.19759890154217    0.44611366022779    1.52986948542441
O          -0.59441716214683   -0.66196740877125    2.76044703979696
O          -1.10110173106768    1.10236589122973    1.16868752717966
O          -0.27831966961469   -1.04818348820527    0.37322218710026
O          -3.53674726077874    0.49287396443284   -0.70615138446947
H          -3.90902314457102    1.22494538158112   -0.21227918897487
O           3.21156189679386   -0.42204542511826   -1.68353270302768
H           4.16890582501515   -0.42872520689742   -1.64158179732400
O          -2.81957654890344   -1.33219164454874    1.17767517578382
H          -3.40751588251636   -0.22770667877176   -0.05292362771624
H          -1.96151477724725   -1.54300093961270    0.77854639967486
H          -2.58960264983094   -1.08330491635749    2.07980612262990
O           2.29283210190083   -1.77868117357793    0.37481041107690
H           2.89915080956694   -1.06413232781678   -0.99081889151013
H           2.37176744518280   -1.13110149757381    1.08814458875343
H           1.33051233339988   -1.82463962510533    0.23412315414130
O          -0.99053534104890    0.68010225675633   -1.46653391032785
H          -1.16392172828629    1.14733634242414    0.19239877275853
H          -0.74379474617884   -0.18013064491314   -1.06950892669275
H          -1.97080945454280    0.66039405196384   -1.50744341778488
N           1.55449360027535    1.44673994746768   -0.80490045309715
H           2.26011113909324    0.80683446972844   -1.26582177572376
H           1.86416835671343    2.41282225961341   -0.81327176186319
H           0.64202548674864    1.34721336137658   -1.27797882342326
H           1.43445872004222    1.08331366180885    0.21857972515127
