    26
        -50.45987902  Gyration_radius:  2.52579848157 Dipole_moment: 7.503
 S          -0.18108824483941   -0.44400688153593    1.45419013232895
O           1.36494949366039   -0.69127485208549    1.20654700684804
O          -0.57896767493430   -1.26279781340250    2.54730863598911
O          -0.28607555950203    1.00563576103684    1.69714713094948
O          -0.84100479899914   -0.76175341070535    0.17507224896006
O          -1.66248486795450    2.94493146617988   -1.38214310346106
H          -2.10119890071790    3.78451743341203   -1.23748926239665
O           2.09191910465244   -2.81050661971029   -0.99102726472817
H           2.86681650257455   -2.91345423358339   -0.43656075845764
O          -2.64537535300142    1.20469176532410    0.32840521017583
H          -2.17088688673543    1.43683098569216    1.13805999715571
H          -2.15671909817878    2.27604989682535   -0.83603370114471
H          -2.24224770564965    0.35353164898716    0.08176745599942
O          -0.02297233377980   -3.26860510209849    0.65561114343818
H          -0.55909287236722   -2.53277223174104    0.32204360699834
H           1.33439599927458   -3.11219086803188   -0.44530762735305
H           0.01179893607048   -3.10562640706430    1.60471581701704
O           1.18576854914760   -0.34523124267069   -1.43633432595118
H           1.61280880303384   -1.21639234284818   -1.58340274965225
H           0.27400067449638   -0.56337964084123   -1.15411717619615
H           1.52461825907211   -0.56810882357685    0.24828728525510
N           0.66035065632662    2.13546709780533   -0.40270222707182
H          -0.18201359616849    2.56138662676399   -0.88105322807542
H           1.38078983138938    2.82799202311377   -0.22746839189057
H           0.29611571960077    1.70506268071663    0.53296913071038
H           1.02579540348666    1.36000309404672   -0.97848499542110
