    26
        -50.45987905  Gyration_radius:  2.52559775859 Dipole_moment: 7.502
 S          -0.06449298875727    1.46359104269184    0.44396054397116
O           0.24477307723401    1.58493154494665   -1.10586932871866
O          -0.64126945823754    2.69362254755482    0.86598456692378
O          -0.94745533209005    0.29108309779967    0.57909498126510
O           1.23960135382102    1.15060580007831    1.05458142957749
O          -1.94146909205145    0.45083383672766   -3.04594077390814
H          -1.58373275523441    1.12812803066399   -3.62185908310905
O           1.57931431182053   -2.60379801847756    2.01769686983771
H           2.19058494839833   -2.84420555316493    2.71538207766085
O          -2.71222508586608    1.76787790431335   -0.79547255435981
H          -2.35027262502969    0.93167170497851   -2.29464855431206
H          -2.36210025166006    1.10677208299401   -0.17867314229460
H          -2.29477305912183    2.58616217308915   -0.50426355689236
O          -0.24039907420126   -0.99694300379865   -1.59369745080137
H          -0.70685255424070   -0.81350545980734   -0.75273338826608
H          -0.88347106199644   -0.74730857910016   -2.29145202095876
H           0.15294146252901    0.68770596678745   -1.48717159554297
O           0.13294813997530   -0.57620765349041    2.86478316527178
H           0.94777580189143   -1.94676861418469    2.41682966647876
H           0.74160782296308    0.16434331541219    2.74015867134789
H          -0.52803150293976   -0.42886508147837    2.16525013217262
N           2.02703969282516   -1.02251959385282   -0.05821174018307
H           1.32690051504416   -1.21228645021561   -0.79319095424447
H           1.94759009430251   -1.75635991188758    0.70012591301587
H           2.96279645681965   -0.98804376267940   -0.44869962854754
H           1.76267113267755   -0.07051734546929    0.40803575376676
