    26
        -50.45218196  Gyration_radius:  2.45144196148 Dipole_moment: 8.750
 S           0.60590129405000   -1.24299385417290   -1.78505975190249
O           0.31053813225118   -2.53399041026308   -1.13581987538169
O          -0.51709079993600   -0.31437965903199   -1.55265948117624
O           1.80141322047387   -0.66203455752878   -0.91430097745159
O           1.01240928247118   -1.32422819838392   -3.14461322442238
O           0.98725048504485    2.53790441008082    0.70895556646119
H           1.56835279055461    3.21937348320289    1.04804231626995
O          -1.15611887768201   -0.48390335378009    2.22069359613302
H          -1.57842922216469   -0.22863127464825    3.04149907410105
O           1.54395274845528    0.15226651422176    1.69758157136814
H           0.70909529780674   -0.23333997732975    2.00345162750611
H           1.76922865921922   -0.30764891979087    0.87143991830091
H           1.26997408112147    1.68596175245831    1.13659839110594
O           1.38392880735897    1.69175121857885   -1.87931338368923
H           0.55093768645049    1.29708764015552   -2.16765248488169
H           1.20427756085160    2.15068835105100   -1.03578423717416
H           1.91133876847846    0.23673135203812   -1.32070179229365
O          -1.43027648595991    1.29042712505838    0.35682337765013
H          -1.29586781593826    0.27383974098985    1.57429320237850
H          -0.74933337915324    1.96682233076988    0.49197312511216
H          -1.11537309086388    0.76500700939005   -0.41058698278288
N          -1.80245006831366   -2.00486871151860    0.06849793526135
H          -1.61525026156731   -1.62622383864902    1.01698393395843
H          -0.82799072722269   -2.36819616716952   -0.39655023668041
H          -2.52806595835449   -2.71253377759661    0.06920651785174
H          -2.01235213743275   -1.22488821813088   -0.56299770562023
