    26
        -50.45201922  Gyration_radius:  2.50117120119 Dipole_moment: 2.536
 S          -1.04371987772015   -0.84313380042230   -0.44835347327827
O          -1.92428637986678   -1.71071213163061   -1.38744092607560
O          -1.52603631100531    0.53259396275214   -0.61684115546503
O          -1.20434372456683   -1.30220571928803    0.92184149652257
O           0.34522642492612   -0.95636746788600   -0.88833820642434
O          -0.23538744366837    3.28700235685935   -1.44050893461800
H          -0.92948561133012    2.90804236823446   -1.98688239017767
O           1.40753921156607    1.61981690103301    1.70183763534814
H           1.69031760014612    1.90898947382195    2.57074360158257
O          -0.87760033676117    2.41154822335988    0.81719796414248
H          -1.25272568621964    1.53922064897172    0.32202617259103
H           0.00978764236419    2.13447320080874    1.23029368158105
H          -0.63206032738454    2.96473927514625   -0.04239320136752
O           1.28341458947886   -0.95648014824036    1.60790696751639
H           1.44791926637185   -1.09542145402358    0.66126545780332
H           1.39157721368080    0.61239887293721    1.72800846800170
H           0.31887898141313   -1.13520727114184    1.65970678315739
O           1.55627971848785    1.39672277999452   -1.20445763598246
H           1.90162482463997    1.51128983747013   -0.31212957153970
H           1.11046015567421    0.52196465151049   -1.21315625836115
H           0.52540839194021    2.64501753933149   -1.49841790603751
N          -0.62478430079358   -3.76193630863102   -0.42003878956858
H           0.31351366719387   -3.54819989035369   -0.73422972505445
H          -1.58195763640532   -2.62574283513520   -1.21000252119470
H          -0.70509785916840   -4.76230043657206   -0.28902490968651
H          -0.76446217299348   -3.29611262890247    0.47138738653023
