    26
        -50.45201904  Gyration_radius:  2.50103407705 Dipole_moment: 2.531
 S           0.33118842470439    1.36692745353487   -0.15377625650372
O          -0.69815821436260    0.87262526565255    0.75831716852569
O           0.17513883091747    2.90665481343687   -0.27545245105266
O           1.66490956676589    1.05525705160045    0.33406825533002
O           0.11466066439803    0.84166363273072   -1.50684749851519
O          -1.84088102082816   -1.24690504760514   -2.82584945537803
H          -1.87023401076270   -0.32826416698428   -3.10698360020417
O           0.36617629464277   -2.71408254314766    0.06072372489992
H           0.89060336053651   -3.50437707322007    0.19856822497293
O          -2.09628180789742   -1.17232266674338   -0.22435414666131
H          -1.68457723039460   -0.35022631924751    0.12023197700036
H          -2.11878905215095   -1.23818077010160   -1.86827804027408
H          -1.54358459691510   -1.89806956459190    0.08618651824081
O           0.93376243104329   -0.93616418648655    1.84368147866026
H           0.08945378365260   -0.45808683544643    1.87541762680042
H           0.62498622189773   -2.06963546876156    0.79109324242261
H           1.49362983574276   -0.29707750325753    1.35066898377019
O           0.57038267244779   -1.46938318578528   -2.18454016520052
H           0.53894472897435   -0.44142309340873   -1.88662268552029
H           0.54273460042599   -2.00779504540533   -1.32205113358931
H          -0.39866113891815   -1.52680651929723   -2.58851297262096
N           0.81017069719979    2.99265642098343    2.25855807055620
H           0.36244489075035    3.21058998530553    0.65104947055076
H           0.03438495752711    2.47819338701102    2.65637265075407
H           1.52298414969031    2.31921091378554    1.99494693163022
H           1.18461096090370    3.61502105543298    2.96338411140058
