    26
        -50.45201954  Gyration_radius:  2.50184037126 Dipole_moment: 2.538
 S          -0.49957246305663    1.13907569718840    0.67241785172533
O           0.82058657958092    0.86565195453684    1.25245633456484
O          -0.45875725396192    0.99976045102580   -0.78171901416850
O          -1.52659668594661    0.29203290469240    1.25696418664657
O          -0.80314483385271    2.62323908637209    1.01102898921785
O           3.59066012782701   -0.17212728519026    0.15965295791749
H           3.53411028197078    0.70775324256807    0.54222519251969
O           0.60272941820286   -2.63664623962803   -0.43764234897551
H           0.45092061537748   -3.57752679680939   -0.33630100386025
O           1.80812119547153   -1.36844324403326    1.45181509426423
H           2.68182937648982   -1.00953644698170    0.99119255478472
H           1.27511365390926   -0.43972123001523    1.48901269226541
H           1.33534742268618   -1.93021948961612    0.74776572786839
O           1.72533195802321   -0.24131241423830   -1.67233192133742
H           1.40522087188815   -1.14984645442893   -1.64675433055626
H           0.97092655897800    0.32096946446288   -1.39182432887991
H           3.01374259767362   -0.14344645976457   -0.65307180123120
O          -1.63865633390401   -1.38996544759328   -0.72813508905922
H          -1.78083062804672   -0.97811252797957    0.15209720591031
H          -1.33597972553744   -0.62536632551070   -1.24430291628099
H          -0.30372909356594   -2.21313006629174   -0.55842369796361
N          -3.12741733593286    2.22426742396701   -0.11647177463012
H          -1.71260576519711    2.74354569603877    0.63076265317973
H          -3.10932728107418    1.35226467838998    0.40366784039540
H          -4.07257684683463    2.58597101285750   -0.12694503446792
H          -2.84544642113827    2.02086882600272   -1.06713600983747
