    26
        -50.46954182  Gyration_radius:  2.39862768561 Dipole_moment: 4.982
 S           0.37765480344801   -1.22954638000606    0.93594144620415
O          -0.11339559887973   -2.36805599246007    1.66210235302681
O           0.22960350543770   -1.41146369965203   -0.52342143901314
O          -0.26262759091055    0.02062110513119    1.35116575362307
O           1.91095848678049   -1.06726796888500    1.17648094043203
O           1.32157474826486    2.11371970753594   -1.30919449758338
H           1.68297608388091    1.22399814515168   -1.55467000813264
H           1.74411690255909    2.74933492681598   -1.88822729390788
O          -1.30288037458829    1.69949982499279   -0.41995632606743
H          -0.50433666439037    1.97690385046383   -0.89563919811869
H          -0.95764651320400    1.20768279744386    0.35518427573999
O           2.29084678471534   -0.30727378373670   -1.70312762984359
H           1.52248480696496   -0.81093247408047   -1.35039048093026
H           3.02576510948118   -0.53861012384650   -1.13017394356159
O           1.91792150898725    1.52394006109026    1.32146746980804
H           2.07541452048939   -0.08725125241306    1.26163077930065
H           1.80403815676026    1.89163276202693    0.42557793686795
H           1.01722036576315    1.33646595633115    1.63057859420003
O          -2.62329394463940   -1.57116939057092    1.51816242502027
H          -2.59107748720587   -1.03795881551349   -0.02499714547397
H          -1.75433828129958   -2.02373239013836    1.62462963363926
H          -2.56650691585234   -0.81082767695047    2.10324602637983
N          -2.20580376320009   -0.70631485817010   -0.95254264157731
H          -2.05803772668848    0.34099055917697   -0.91334138381356
H          -2.76369679863122   -1.01038173043859   -1.74213041233873
H          -1.21693413395248   -1.10400315949714   -0.95835524376412
