    26
        -50.45201956  Gyration_radius:  2.50224617779 Dipole_moment: 2.537
 S           1.01611925265146   -0.98254308319168   -0.01508922826915
O           1.99276487072386    0.08734636912999   -0.13872535354794
O           1.72600610919063   -2.35078035450902   -0.19896019993855
O           0.42631296199032   -1.02298346055726    1.32807784218209
O          -0.02921615640233   -0.86892685839549   -1.03015557230316
O          -1.19835981001708    2.41570027461488    0.48540411301711
H          -1.18930117420363    3.36672077205116    0.60389167833956
O          -2.47199773877406   -0.67759375634031    2.52717545901175
H          -2.01478783068556   -1.51610079948359    2.63531650564024
O          -0.53997424301742    0.91681838789998    2.47291975573476
H          -0.78467841220104    1.56751273742444    1.73012026530555
H          -1.40973365908321    0.35756991979549    2.66043839111645
H           0.03034618326819    0.14079986764608    2.00391536325327
O          -2.40884608474428   -0.18920284577404   -0.04131864590360
H          -2.32777002796211    0.76940723900818   -0.09664157576842
H          -1.58135350556309   -0.55427135790109   -0.42339895466112
H          -2.61104229217781   -0.57784964404447    1.54488821209021
O           0.41784162353042    1.72989602118262   -1.40668270606133
H           1.19414694882572    1.37566106044256   -0.92087979238926
H          -0.00997146319551    0.90778512112755   -1.69703355826999
H          -0.56169883670168    2.21651480366077   -0.27004015470399
N           2.54135489109353   -1.42430006664567   -2.50349596528791
H           3.27500331427380   -1.55276748720797   -3.18871014990399
H           2.13457945257113   -2.25610825703439   -1.09914352399257
H           2.72333651057656   -0.57689884044881   -1.97425461896048
H           1.66091909599925   -1.30140578253840   -2.98761758572333
