    26
        -50.45201972  Gyration_radius:  2.50177785648 Dipole_moment: 2.549
 S          -0.35715941849001    1.26247411018135    0.52406863608078
O           0.06906479772135    1.50096176100514   -0.85987527337760
O          -1.20505374162596    0.07479159330803    0.60135022596581
O           0.78033522628981    1.16046147513082    1.42404843455194
O          -1.21260366115480    2.49747221881490    0.91478174799248
O          -0.18942952506036   -0.04667235449241   -3.59385798920695
H          -0.59144149039653    0.82145239614574   -3.50145228567165
O           1.61570782311649   -2.07399354032806   -0.76702820672048
H           2.40449860977029   -2.61415557220946   -0.69902016214540
O           1.75749408177730    0.16488819579102   -2.03123344253611
H           1.14902038787165    0.81250881550932   -1.43323392144482
H           1.77394904359517   -0.72770788028146   -1.54334653640766
H           1.08593823433013    0.04109330606816   -2.83027018850091
O           0.75660111936852   -1.43887240639351    1.58256417691143
H           1.03978103838451   -0.50322600650378    1.67712516618898
H          -0.18811481366602   -1.32821511523556    1.38753975583384
H           1.32604459198619   -1.87279517617455    0.17710213647486
O          -1.11470212875288   -1.44434063193273   -1.58640222542716
H          -0.67372884329294   -0.63138122941379   -2.94753930258233
H          -0.38067188989116   -2.01879333546945   -1.34185366360115
H          -1.26394182284502   -0.85211432398428   -0.81763057638904
N          -1.36688783605631    1.42477598789315    3.29379372280903
H          -1.52539495056505    1.67720270898502    4.26094062898156
H          -1.87058812333310    0.57003532522456    3.09310108497841
H          -1.44072200401596    2.30382939243416    1.86180957095930
H          -0.37799472506901    1.24032030591941    3.15451849625758
