    26
        -50.45201953  Gyration_radius:  2.50200163828 Dipole_moment: 2.541
 S           0.37244432126425   -1.36176370000138    0.06335861793897
O          -0.66185572165009   -1.64767688493214   -0.91760912461459
O          -0.16109413318177   -0.60504401526710    1.19414073851985
O           0.95361992056933   -2.69658915931590    0.60214958927447
O           1.50772260100318   -0.65366773679618   -0.53956842527286
O          -0.92560676040146    2.33858664087085   -1.08725627638755
H          -1.46399847976111    2.84398313414105   -1.69824618180288
O           2.87488682056584    2.16020620220064   -0.14384922192046
H           3.38116979547425    1.36102735393279    0.02589039387979
O           0.70591538116421    1.91313425100396    1.29671541031336
H           0.02034151065803    2.33134665470419    0.76412828578090
H           0.46106880365649    0.96434927334737    1.35837373405336
H           2.14387954650853    2.15780477330937    0.53414315840191
O          -2.23929205934725    0.29928102749130   -0.20544075633700
H          -1.80138687915884    0.18163919045416    0.65339647020088
H          -1.49685735850184    1.57026252224821   -0.77232873088639
H          -1.85831913284344   -0.44929711726424   -0.71396045621777
O           1.30395447308636    1.35866975422302   -1.92365591845206
H           0.41136716624092    1.77057328316599   -1.66178056713883
H           2.02404109785623    1.83052068797977   -1.32108817418661
H           1.33072417607908    0.39747383549493   -1.45125804859837
N          -1.50323688091889   -3.30291952306695    1.25751377816038
H          -1.70501401264511   -2.58589360780091    1.94291083649033
H           0.14537219872685   -3.14728807823027    0.96261321985597
H          -2.09494388959985   -4.10356297238038    1.43940394134254
H          -1.72490249486441   -2.92515577956649    0.34130369761051
