    26
        -50.45201969  Gyration_radius:  2.50223740136 Dipole_moment: 2.542
 S           0.91583707469976    0.98885455994901    0.42503955608493
O           0.01251406287123    0.26982866939195    1.32099608620376
O           1.96588059077360    1.73663547862665    1.28981793542144
O           1.68304753827824    0.04581453918514   -0.39703938780172
O           0.19502296532548    1.94950568953415   -0.39457761802355
O          -1.74382839215821   -1.31187766139939   -1.65727606102164
H          -2.39127095606735   -1.34620603090890   -2.36312766804024
O           1.66316167729489   -3.07506540035089   -0.85466641990001
H           2.44785621757016   -2.65679607726345   -0.48985039182919
O          -2.12228651285904    0.77827339690233   -0.19109491204191
H          -1.41065300149910    1.38867148966170   -0.48349393718690
H          -1.95308701321446   -0.48621900369467   -1.11851903886138
H          -1.75778545264576    0.45728767329496    0.64969739154143
O          -0.30406944561894   -2.29830009603263    0.68365606215310
H          -0.12011433235099   -1.39306627161120    1.01652049427120
H          -1.05313412041652   -2.21453014465054    0.08328566913701
H           0.94846346552171   -2.93392113456597   -0.17386987310380
O           0.75378417922378   -1.22346923514245   -2.27669577922025
H          -0.24836735554302   -1.25615245770033   -2.10405520948691
H           1.15063358592841   -0.53627555645955   -1.55747022924071
H           1.14447053814643   -2.10477631725417   -1.85814187647693
N          -0.03613891985141    3.15851761318178    2.18630093037027
H          -0.23644084238958    4.05767303362377    2.60542158151002
H          -0.31862023744277    3.17429978071984    1.21097133384025
H           1.40223905251394    2.38095557776418    1.79338168307490
H          -0.58711435606089    2.45033786523495    2.65478966868463
