    26
        -50.45201969  Gyration_radius:  2.50212718296 Dipole_moment: 2.547
 S           0.68122171718110   -0.20674920508490    1.21993361177467
O           1.01058574114193   -1.35520317288354    0.36762736953617
O          -0.61221235004852   -0.37185661158779    1.86323762699719
O           1.79192065130262   -0.16054532381661    2.30337161320015
O           0.73900814389867    1.03471684732099    0.45125478018305
O          -1.96016943520251   -0.24916693068785   -1.89693423014141
H          -2.86372401593363   -0.39863470404867   -2.17936509854212
O           1.54706063624956   -1.79815086397594   -2.70813974210324
H           2.24467583287158   -1.98847022261480   -2.07495679244112
O          -1.91195333501442    1.19690653604765    0.24037048184068
H          -2.01069175593275    0.32794784033094   -1.07222811915781
H          -1.72056048153413    0.54286721409401    0.94743899272934
H          -1.04238200293404    1.61610221378796    0.13492218881051
O          -0.48951959576243   -2.28602457146670   -1.33246554103190
H           0.06227378408936   -1.94896239508648   -0.47823334318888
H          -1.12660493705853   -1.52817337074639   -1.56664597709551
H           0.29113829219139   -2.22987759677731   -2.03374126895613
O           0.80112245231641    0.65381196370979   -2.18597099461346
H           0.89964908864312    0.82781928084970   -1.22483090215964
H           1.38757353953709   -0.81651310610682   -2.63700113394526
H          -0.14646053574122    0.65359468497622   -2.36119387902241
N           0.45257067637364    1.82574602878329    3.34998668603437
H           0.51153901088825    2.51712094020207    2.61294482770200
H           1.50188722935260    0.60227688598503    2.86941121187709
H           0.31528156325389    2.30139979279448    4.23278793677368
H          -0.35322989410425    1.23801784599543    3.15841970493659
