    26
        -50.45201957  Gyration_radius:  2.5022488698 Dipole_moment: 2.543
 S           0.48575439808126    1.32708596630173    0.02513623270406
O           1.23590052815075    1.03235108994789   -1.18492758149491
O           0.74884354786677    0.33857763310006    1.06887421860272
O           0.90253827645952    2.72314404404223    0.56097246233004
O          -0.95429408506666    1.42215013630448   -0.24184957407414
O          -0.83723531706395   -2.38588072241394   -1.05607713479296
H          -0.83890283085593   -3.07214965989849   -1.72508004310800
O          -3.52865963789939   -0.14059288758521    0.69817287735603
H          -3.44194514645828    0.79366245322088    0.90656007363044
O           1.55835931680671   -1.50222185011457   -0.67901393292324
H           1.48086741928615   -1.20835227038769    0.24329821844863
H           0.12167938878454   -2.09515532357603   -0.94817534419290
H           1.55679892728584   -0.64108515236895   -1.15103300096975
O          -1.33091762106101   -1.24586128677357    1.58621033561939
H          -2.78796688241157   -0.59028917450536    1.19138243592079
H          -1.14756912330929   -1.94822821586940    0.95235687429403
H          -0.58869705024969   -0.60803435537260    1.50696398747290
O          -2.24973967924465   -0.26977319348709   -1.45264132846444
H          -1.71232238978338   -1.12892350401480   -1.36291726988223
H          -2.94463974454444   -0.28413542709112   -0.66452391700647
H          -1.61950236519662    0.50895034842305   -1.07264222211174
N           3.34539272902946    1.79320850249995    0.59004634036511
H           4.30718796895053    2.10704272647702    0.56302756902985
H           1.88155216073699    2.61518055679752    0.68856257707903
H           3.09379699969796    1.40882926632097   -0.31562092597092
H           3.26372022201340    1.05050028000752    1.27293807216264
