    26
        -50.45201909  Gyration_radius:  2.5010189691 Dipole_moment: 2.540
 S          -1.01552452968456   -0.78883993723663    0.59060867289715
O          -2.27874606282516   -1.67881159317129    0.74028884201456
O          -0.76613322278470   -0.09256715942747    1.84240559869503
O           0.07733540453614   -1.71020816986550    0.25849348504628
O          -1.24389288045795    0.15106435029874   -0.50488586115531
O           2.16727409678515   -1.97096085804246   -2.08581973286992
H           1.53094438122885   -2.67589973867514   -1.93762297289832
O           2.32018072269737    1.44524683542097   -0.17188807527186
H           3.00793240964336    2.00522268898277    0.19141858396749
O           0.73475500943174    0.20771232045976   -2.28939266196619
H           1.28453972866813    0.88876748794042   -1.88628999610835
H           1.62393670279952   -1.17609389752041   -2.34489336258200
H          -0.06122287494452    0.12831100131425   -1.72007873922244
O           2.44932277523565   -1.09246034382715    0.24338083118037
H           2.45865514839820   -0.08239158982275    0.12155394200891
H           1.42595120108578   -1.35494204028755    0.41762386269342
H           2.53452828418542   -1.49753275061563   -0.72283134970535
O           0.01273980995591    2.13973271834274    0.75252289857551
H          -0.17679520716121    1.44433300884777    1.42009424698821
H           1.45000895511477    1.77411513774302    0.21602164246331
H          -0.55403264552742    1.85304112811877    0.01845423927605
N          -3.52834576969588    0.51665201917595    1.41250765523397
H          -2.70089715495720    0.69079249153973    1.97474012050321
H          -2.97302075279068   -1.01672303741669    0.99589318436859
H          -4.34513511384040    0.84487242606437    1.91196507800938
H          -3.43435841507226    1.04756751168227    0.55572985784819
