    26
        -50.45201978  Gyration_radius:  2.50202915988 Dipole_moment: 2.549
 S          -0.30951314526226    1.20899253163269    0.66090239775809
O          -0.93110223977199    2.60060671645995    0.95492207383515
O           0.01677810414833    0.55253652054353    1.91665834824892
O          -1.27443040479221    0.42990446052611   -0.11195871845697
O           0.89291896594795    1.47606772734850   -0.13714628068273
O           1.97106156651316    0.57026980269634   -2.95802355411614
H           1.79604459940974    1.50127864406881   -2.79562510653269
O           1.25006090568163   -2.38746188250735   -0.48919088910833
H           1.70224759034869   -3.18753592397599   -0.21716287074584
O          -0.66865267882403   -1.83940098212476    1.14816650112448
H           0.51038572790770   -2.23737997873757    0.17861016837533
H          -0.29941974746465   -1.10345625941666    1.68362387980185
H          -1.26182685268145   -1.35550044487777    0.55098094109994
O          -0.24249531266802   -0.66372381940948   -2.31221031702202
H           0.05527317259843   -1.50129940631713   -1.94017286700631
H          -0.68319252948670   -0.18201020172435   -1.57890457448348
H           1.08413241180359    0.11974648497162   -2.89043820330109
O           2.60142660949887   -0.20182938533302   -0.65930735953976
H           2.12889349499597   -1.09794348751984   -0.56720437848675
H           2.52680011249668    0.05726815401923   -1.67506180879360
H           1.91774864890201    0.52854221759900   -0.27576616359183
N          -2.69499196922056    1.32040467825859    2.39824838045142
H          -1.88660387240470    0.80047034315106    2.72615249038253
H          -3.33222087956722    1.46680306052324    3.17070339128772
H          -1.71105223390969    2.36646659397427    1.52362800891059
H          -3.15827003422140    0.75818385616942    1.69557650057587
