    26
        -50.45201971  Gyration_radius:  2.5021462912 Dipole_moment: 2.544
 S           0.32880394412593    1.35560700993447    0.22546275327186
O           0.68011600124898    1.07660595657235   -1.17185193562116
O           0.75321302022886    0.25617412922898    1.08955591056586
O           1.13989046736529    2.62107511892899    0.61353836804932
O          -1.09128560883993    1.62929940390590    0.37578567971687
O          -1.46209628921962   -2.16066040708242   -0.83656451927958
H          -2.28411572315442   -2.61178216708126   -1.03491015665846
O           1.87088735531920   -1.38329126800742   -2.74675497448631
H           2.35997455220442   -0.55620412840340   -2.72376202901030
O          -1.71548854257190   -0.72644537174389    1.29433515152266
H          -1.79765403943727    0.18584895564274    0.94004755762698
H          -1.62296849283985   -1.63279549329621    0.00677582514619
H          -0.79443617942507   -0.72398146961785    1.60185531902042
O           1.38969869245605   -1.96275894489370   -0.24215106974112
H           1.84498063999400   -1.70040372243689   -1.80182742826207
H           1.27847809134016   -1.13240287138953    0.26984814764017
H           0.52286422533461   -2.38326426458407   -0.26040897074527
O          -0.48595884457653   -0.54716638058767   -2.58989421312131
H           0.44006276241319   -0.97882731972341   -2.83557357776978
H          -0.92921894500854   -1.19429313065095   -1.94190187886800
H          -0.11309601094601    0.25728674395551   -1.98869832982849
N          -0.10055567214962    2.50373046539627    2.91173442661197
H          -0.37520342595654    3.09234538260599    3.68791831374939
H           0.83921725424078    2.78615431583222    1.54559374858713
H           0.23815518671242    1.62183805691220    3.27538734039899
H          -0.91426440887967    2.30831140056935    2.33646054137397
