    26
        -50.46728896  Gyration_radius:  2.49412168816 Dipole_moment: 4.072
 S           0.53180084675631    1.67159818199051    1.07491147353475
O           0.49742676520374    1.96365589164370   -0.34192274161327
O          -0.74971017159054    1.72494537846828    1.73864410576215
O           1.23237267519745    0.41163333101645    1.34226651621487
O           1.41651324752320    2.80837387946571    1.74363758259583
O          -2.13169577239345   -0.37929616904576   -1.09414708132665
H          -2.99911694693717   -0.71290396196450   -1.32679516193852
O           0.72886205594130   -3.29047442957426    0.31611136825163
H           1.04542604349483   -3.75114439297217    1.09426063285276
O          -2.23875974615332    2.13738571460886   -0.38033041099689
H          -1.88697207390420    2.02513137322646    0.52807033963991
H          -1.48940457735389    2.50963625676647   -0.85917268267923
H          -2.25619543274249    0.57762389350950   -0.84071212978929
O          -0.86081321967714   -1.37419189887190    1.13957182762271
H          -0.25917637815737   -0.65651587999184    1.39198380755190
H          -1.38498999211789   -1.04046213496358    0.38938643245725
H           0.01990313922511   -2.67069919449221    0.63950767588950
O           0.30101791021743    0.11579498207676   -2.25196025351152
H           0.40256027191414    0.92367007800842   -1.70747494810569
H           1.09334953192580    2.79424746251352    2.63859262953480
H          -0.59303684399728   -0.20521883780533   -2.03906486310113
N           1.94671561573642   -1.13124827330559   -0.65025649610553
H           2.92371860541042   -1.15053919826234   -0.91809811882843
H           1.33135969401999   -0.73953528296019   -1.43365656995589
H           1.59486193722433   -2.08105515819854   -0.36393080018880
H           1.78398280773481   -0.48041159995029    0.17057784711086
