    26
        -50.46972950  Gyration_radius:  2.4307882003 Dipole_moment: 5.127
 S          -0.44229598501027    1.48409462071913   -0.26296693939010
O          -0.45289056806065    2.25099332110105   -1.48088517998174
O          -1.66765793025638    0.67617052867286   -0.09728915256916
O           0.70524230156411    0.40949514872167   -0.48635970491023
O          -0.12114839723026    2.21084670151170    0.94215287339746
O          -1.42687374033997    0.17057159236439    2.48083767771459
H          -1.13391488452601    1.01805176283845    2.82821286008088
H          -1.69657724830778    0.36323943839874    1.55911692885356
O           0.55387785101430   -2.73307693543756   -0.33470502864822
H           0.60731167740759   -2.26957286844203    0.52024258173141
H           1.44482749354092   -2.72669258421822   -0.68961015833703
O           1.93263363967391    1.38654100073943    2.39767298239300
H           1.17915334738319    1.77373137636103    1.89914740623888
H           2.66091611593939    1.99891689786113    2.29170599762618
O           0.05310021704584    0.47774993182851   -3.30049984611771
H          -0.18689295603727    1.23831049284565   -2.70738469579224
H           1.01060329932827    0.43304566110441   -3.25874240404370
H          -0.69821366253435   -0.68606517324226   -2.48683608268379
O           0.82490838202338   -0.95769676654938    1.73454806430590
H           0.78752068477939   -0.10660730493808    0.36094977461977
H           1.45994973960447   -0.35240405686562    2.15726938794304
H          -0.04966354903188   -0.69656511329150    2.12538311258472
N          -1.22156725593713   -1.24049318326574   -1.74934078753557
H          -0.56961726415669   -1.89208572631419   -1.25412208088804
H          -2.01460774816745   -1.73576305271964   -2.14289869593842
H          -1.53812355972393   -0.49473571979838   -1.04559892065787
