    26
        -50.45462507  Gyration_radius:  2.43340752142 Dipole_moment: 7.040
 S           1.14699652819657    0.78566876951120    1.36755800210128
O           1.54110180461965    1.49701837389218    0.01611425058130
O           2.30734018717716    0.15063801734426    1.92829492234176
O           0.61418407325928    1.89850575600054    2.18809247437408
O           0.07651106949699   -0.13857194348901    1.03747900205556
O           0.72938386512615   -2.34834298938364   -1.29710973303753
H           1.30111226290894   -2.85594111736934   -1.87503189913318
O          -2.23774333186232    0.61734448667308   -1.00596757026244
H          -3.13707604584859    0.63265512354359   -1.33578103389627
O           2.02311188859244   -2.31042716580013    1.00822026180779
H           1.45214845075523   -2.67555430447203    1.68740129936598
H           1.20238221952412   -2.29984419125577   -0.42522323769234
H           2.23210022039935   -1.40080011123775    1.31819778073708
O           0.40645334924074    0.25825447792634   -1.93903373559454
H           0.54898971085557   -0.69320089689324   -1.74713497337353
H          -0.53149354982795    0.41801332685798   -1.75773308578125
H           1.18162181209315    0.97806344465322   -0.76578443654615
O          -1.69521500062717   -1.73472403989572   -0.03354451722998
H          -1.09459500074988   -1.27960234067536    0.58764707555368
H          -2.09854612310847   -0.29909424630084   -0.61977359114195
H          -1.08852345776475   -2.18669608062504   -0.63692810414743
N          -1.01364432651526    2.61313119849034    0.44395276656519
H          -1.49663237205615    1.78212947382240    0.04423680154015
H          -1.68335198613584    3.32215552562344    0.72401947646276
H          -0.31920178959336    2.29264800480725    1.34091245629747
H          -0.36741447815876    2.97657343824949   -0.25308066194728
