    26
        -50.46728904  Gyration_radius:  2.49350839875 Dipole_moment: 4.062
 S          -1.69128246346832    0.93530720450020    0.70045949527088
O          -2.64413740040255    2.01112379358404    1.37638512799723
O          -0.97730737738506    0.28934225450738    1.78068426087953
O          -2.55464799756023    0.06595805673487   -0.06413754635623
O          -0.78022090457229    1.69416092366668   -0.16180101450594
O           0.32094453599792   -2.39598918531744   -0.23535694512153
H           0.43464680914840   -3.27679737159805   -0.59457883626534
O           2.28597784315175    0.81461455077952   -2.35846057293356
H           2.18836567050700    1.44081620424710   -3.07701009489350
O          -1.91887136608015   -2.19397971598604    1.10523059988277
H          -2.32579636963470   -1.48567284795434    0.56299722011781
H          -0.54449285625992   -2.40320079847164    0.26099508438359
H          -1.63099766087409   -1.72363054504741    1.89603846818357
O           1.48806532667845   -0.70114732955044    1.57312157237534
H          -3.31941839099293    2.10702097934144    0.71278868753012
H           0.60531517860453   -0.37916767509745    1.84960203252213
H           1.29472010128150   -1.41498038040014    0.94012320828490
O          -0.06371298111840   -0.27903358529997   -1.95671457573764
H           1.42883892091514    0.30952709594006   -2.32258911964184
H           0.03627333639411   -1.07736671243049   -1.40747376122367
H          -0.54159749538237    0.36710174691737   -1.41410878582204
N           1.80884534005582    1.48186246252118    0.17235244237788
H           2.30030437659983    2.24706919356838    0.61911027674203
H           2.16695582086290    1.29355203204831   -0.79945930632187
H           1.86090975602236    0.58638923729907    0.75625194168278
H           0.77232023750127    1.68712044154265    0.08555011060027
