    26
        -50.46728899  Gyration_radius:  2.49341388066 Dipole_moment: 4.061
 S          -0.61807269592907    1.84734347750589    0.65565818941812
O          -0.58608170759749    3.32525857677368    1.23613783164763
O          -0.09683431155288    1.92887579617581   -0.69176750913154
O           0.26406039258769    1.05878797678104    1.52129230936114
O          -1.99227677902851    1.41362625385985    0.75163045978296
O          -1.12273699359398   -1.38620108052475   -1.64787892316301
H          -1.61765903173473   -2.08589433590161   -2.07597477366606
O           1.56177787500965   -2.59011067170954    1.51734719081564
H           1.61897564529134   -2.77000370548886    2.45668670198333
O          -2.38735666573051    0.90185072101191   -1.79008349316443
H          -1.66416966126027   -0.55442087852633   -1.74997487906398
H          -2.47818564267965    1.05452073892878   -0.82582208369109
H          -1.67516545861045    1.50237861449816   -2.03848524208418
O          -0.76756785942787   -1.46572861703602    1.08349024629274
H           0.62220229575510   -2.30404499860226    1.35457783812195
H          -0.63436753202621   -0.53458020132068    1.31915693660111
H          -0.96592496286581   -1.48083329062801    0.12982690908148
O           1.24282109638805   -0.02846700577844   -1.90712121129046
H           0.80382291356926    0.80082816977950   -1.62622543770559
H          -1.25776009658737    3.27723276066294    1.90857868218310
H           0.51849052931831   -0.67674207470331   -1.95884623069281
N           2.28161687816903   -0.24801415823875    0.48115335651470
H           2.17978813119847   -1.21597951156336    0.88230494327278
H           1.55296566525324    0.36044437650438    0.95316138560693
H           3.21470430814609    0.12415566697449    0.61331003268599
H           2.00293367800454   -0.25428260930772   -0.55213321980064
