    26
        -50.46728908  Gyration_radius:  2.49341810148 Dipole_moment: 4.066
 S           0.66801503975735   -0.20384696813656    1.93309368994021
O          -0.67224155254299   -0.10697319131931    2.46224766032679
O           1.17961917755717    1.01343931356384    1.34116896035960
O           1.60492142541876   -0.52354355149916    3.17509274207723
O           0.81232462593857   -1.34209063844228    1.02046717293315
O          -1.67783306479703    1.57362409399997   -0.77812751029140
H          -2.48557507191258    1.96459206229660   -1.11353088442908
O          -0.50180093511572   -2.20123179781899   -2.52033473426253
H          -0.61217605890609   -3.15081405285239   -2.45643663883521
O           1.02005403015774    1.60096403596604   -1.25315749254212
H           0.05181223587415    1.67977159535770   -1.31580024946920
H           1.19594263537438    1.55290011835721   -0.29074433574783
H           1.02822028386186   -1.05608306663298    3.71299647630683
O          -1.56760466671668   -1.14921263848384   -0.36741244367175
H          -1.69145233732365   -0.19182476181156   -0.49779980805931
H          -1.03824235343230   -1.81681348965348   -1.77488909776806
H          -0.88334764762929   -1.24528241040067    0.31296261808140
O          -1.19472151639874    2.34061178594652    1.67810941259586
H          -1.56312712480802    1.91680267131161    0.15164982031993
H          -1.20723852813578    1.45106162582174    2.09032892867504
H          -0.25400093174086    2.54775167384893    1.63728046939410
N           1.58391113046575   -0.94320047713988   -1.45037557394473
H           1.38809286023118   -1.15806109115847   -0.43079768376962
H           2.53460697856172   -1.18617858305637   -1.70286341859367
H           0.87426252296115   -1.47459002288830   -2.01795745708733
H           1.40757886395751    0.10822773438753   -1.54517063283978
