    26
        -50.46728896  Gyration_radius:  2.4933983679 Dipole_moment: 4.058
 S           0.52163281215646    0.42526179445160    1.94175790801399
O           1.39016380167276    0.77990012984729    3.22327597221135
O          -0.85018924816748    0.69002428961529    2.30745046771612
O           0.98662560224988    1.32527347995946    0.88212789378958
O           0.81243746945209   -0.95611227023145    1.62360919595996
O          -1.89820087689263   -1.33573956219253   -0.71510873418072
H          -2.73754346912168   -1.61815084432722   -1.08053953188249
O           0.20456351161846    1.75311247457981   -2.88741577976637
H           0.29383052612868    2.70128361268732   -2.99219743428764
O          -1.80924638604965   -1.71234175726221    1.87438086217599
H          -0.93348328799732   -2.10012625105427    1.98490552306388
H          -1.66994074735123   -0.77639203540943    2.13103387398075
H          -1.94212317267842   -1.51610641473118    0.26514797224965
O           0.76355948199355   -1.97276985600288   -0.83948553817280
H          -0.18983906126538   -1.87283109513030   -1.00871216964218
H           0.89255525001031    1.50163545956517    3.59350518306460
H           0.85944881284109   -1.78260522242274    0.11654602606750
O          -1.24803904966665    1.34205635760567   -0.74257731303573
H          -0.62347085474189    1.42831480502654   -0.00591877744229
H          -0.46565784233876    1.62391690154555   -2.16276569787696
H          -1.56031390535319    0.41939669330062   -0.72999004351079
N           1.87055549982020    0.33355332048862   -1.37502327259051
H           2.86980831518406    0.33675717444732   -1.54274782786472
H           1.34376428069727    0.87845898858629   -2.10556498319449
H           1.48386805629441   -0.66275940211106   -1.31918917488315
H           1.63523449269524    0.76698921885198   -0.43650460032217
