    26
        -50.46728900  Gyration_radius:  2.49336725039 Dipole_moment: 4.060
 S          -0.81064361857347    1.11407386035826    1.52486904993049
O           0.34508113795317    1.65592946525903    0.80381404977526
O          -2.04074044578860    1.31432245787451    0.79519334622433
O          -0.57117772273907   -0.24657673246057    1.95527208269236
O          -0.94233484670405    1.98337626034375    2.84748205572178
O          -1.13830541135239   -1.72218985651077   -1.27895009125625
H          -1.56858130604001   -2.21226180377603   -1.98072969063713
O           2.25933223710902    0.69169183300816   -2.42261056715175
H           2.52118812583375    1.55298528036275   -2.75063368250501
O          -2.80042515884786   -1.19277353594592    0.67349925388762
H          -2.26717518644150   -1.40901168575880    1.44706863815199
H          -2.73725051769384   -0.21535537997266    0.62849952759446
H          -1.83079540533826   -1.56667529949732   -0.57777041359162
O           0.85238942949417   -2.02988768728845    0.57787237592701
H           0.26063113966396   -2.11124328845180   -0.19078103585664
H          -1.45755207676577    2.72078866032930    2.53712298526786
H           0.33018188227147   -1.51944974815197    1.23058091545747
O          -0.27461978679846    0.84925837507584   -1.76456627583182
H           1.26989887650893    0.73172578653730   -2.32019406210753
H          -0.64043145378122   -0.04660924873545   -1.65232338073139
H          -0.27175792119361    1.25451917810318   -0.88363929779810
N           2.33787656332733    0.08068243140519    0.16547041443828
H           2.48948706577934    0.27865728293368   -0.85725097232154
H           1.61128131855600    0.77163162413181    0.50990202759897
H           1.87841482234554   -0.87867585162138    0.28321794542275
H           3.19602827919075    0.15106763243083    0.69958481166540
