    26
        -50.46728905  Gyration_radius:  2.49365954951 Dipole_moment: 4.062
 S          -1.51241154809926   -0.24521855106049    1.37062742872770
O          -2.57787100516124   -0.93170833596184    2.32768471420955
O          -0.26149019087942   -0.98312192126936    1.57084165102372
O          -2.01109493343186   -0.41127561497321    0.02238332316881
O          -1.40471258373896    1.12443085517225    1.81577093057875
O           3.26534096478302   -0.89070190565222   -0.03095397396323
H           3.82055576604924   -1.11227788827213    0.71778705416226
O           0.30373979390421    1.90725817410483   -1.47230725720785
H           0.63652674264237    2.70406324413297   -1.88724729649396
O          -2.07062603221963    2.29013833551830   -0.43721388644646
H          -1.83680949969426    2.07870323115621    0.49123831575595
H          -0.59830506369474    2.13290153541913   -1.11080817511340
H          -2.54059181790346    1.50021231453146   -0.72808680343940
O           1.56191471027538    0.93230310017149    0.77753740071274
H           0.86364655875705    0.42904472878699    1.22430301013450
H           2.73144576151915   -0.10020658925192    0.25395804156218
H           1.14373842454060    1.35534482087309    0.00614600501018
O          -0.46150772373838   -0.63884135476422   -2.13340638660490
H          -0.07402270846796    0.25403800589820   -2.11764785185748
H          -2.41664988688597   -0.47440475783220    3.14654082871115
H          -1.18280826507924   -0.59985640957130   -1.47181929757954
N           0.93591586724328   -2.09705899917949   -0.47513677838958
H           0.42195026897660   -1.76654600037469    0.39124470071289
H           1.93211485930401   -1.76925410474558   -0.38522901013363
H           0.87244522942202   -3.10277804253380   -0.58058221518859
H           0.45956631155008   -1.58518787031110   -1.28562447205709
