    26
        -50.46728902  Gyration_radius:  2.49334056076 Dipole_moment: 4.062
 S           1.83854379938999    0.44023950780834    0.80568307340197
O           2.99694269772633    0.69336560130488    1.86235781895954
O           1.62124767135347   -0.99013484458771    0.77619576868501
O           0.66353189920315    1.14719057783967    1.32399367599697
O           2.30385664080277    1.01096410898487   -0.43668039297445
O          -0.41199835447639   -0.95376315413306   -2.19594876219387
H          -0.67093984074760   -1.07784049694648   -3.10994644709526
O          -3.04102609944994    1.46555241290530    0.23669848661009
H          -3.23878642580749    2.36427197380931    0.50351444684805
O          -0.74211636831263    1.51891857043326   -1.02478015056890
H          -0.61672903930922    0.68589084821793   -1.51391469351850
H          -2.24862676291524    1.53053876429932   -0.36238354224534
H          -0.07773403484373    1.52310087073497   -0.31851031072550
O           2.18138829898476   -1.16162211881767   -1.90084156868322
H           2.24459325022601   -1.71570983916893   -1.11440294386263
H           0.58026722573264   -1.05304374149445   -2.16774438188448
H           2.33822597301688   -0.26012034238816   -1.54866848278110
O          -0.72437937381856   -2.14142980114098    0.25312080704032
H           0.19753408805012   -1.90970678316140    0.48939244909473
H           3.34247248821059    1.52865390248692    1.56490294120748
H          -0.81299013583869   -1.85562049359400   -0.67319144665321
N          -1.56674092681563   -0.16258012957403    1.73790146854011
H          -1.82596554868035   -0.38130640997884    2.69267686587754
H          -1.38494140332941   -1.04903478032129    1.16628129122808
H          -2.29186433238735    0.42837264685053    1.25511498464016
H          -0.65376537596706    0.37485316964327    1.69917903506289
