    26
        -50.46728898  Gyration_radius:  2.49355249416 Dipole_moment: 4.060
 S          -1.93025049628564    0.27148892927673    0.65228855089283
O          -1.25231497945355   -0.72320060032439    1.45540621708557
O          -1.08939641765181    1.45499580551801    0.44845037107818
O          -2.47730156649103   -0.21925817586038   -0.59095010278913
O          -3.17262521502131    0.76566121640852    1.50965099122614
O           0.84596907351200   -1.92833304362992   -1.20953773758969
H           1.19131149033524   -2.50761356775135   -1.88998811651887
O           2.36827366514550    2.11586316930393   -1.16950864344759
H           2.24394301839142    2.99308877685274   -1.53423295342434
O          -1.54861874398264   -2.66793419954138   -0.45175817547725
H          -2.01693493501185   -1.84129094512490   -0.69412936685024
H          -0.05836139561413   -2.27766141426567   -0.97390254020585
H          -1.47729096024310   -2.60327963624293    0.50753891671201
O           1.37093392612254   -1.18639487025087    1.37492075703404
H           1.42102811347849   -1.52452627674757    0.46342722662865
H          -3.75605012227345    1.08365816147872    0.82838252217987
H           0.41071657431838   -1.14625920092564    1.56400439783792
O           0.26725089786809    0.69285949885907   -1.83327651370907
H           1.63938354394626    1.55792619625519   -1.55481468491293
H           0.45536031497036   -0.25290638328583   -1.69503763364163
H          -0.40594012942137    0.93539377809546   -1.17885036629685
N           1.41465676477375    1.42191199824763    1.21542361689328
H           0.38036965830086    1.51699212832501    1.00272722611438
H           1.66718211288586    1.93012325562246    2.05479289092813
H           1.57312997707892    0.36958771576156    1.32972762209409
H           1.93557583000666    1.76910768356854    0.36924552814811
