    26
        -50.46728913  Gyration_radius:  2.49363767973 Dipole_moment: 4.069
 S          -1.46125316234597    1.02696141553054    1.01831240629447
O          -2.39550428350745    2.20819277495103    1.52266542541656
O          -1.90177235643518    0.70426734720877   -0.32173677019529
O          -0.09901717321212    1.56883707322764    1.01553543826658
O          -1.61348830373425   -0.03780632392284    1.98203189360542
O           3.37324918552376    0.25764824502076   -0.09525113924913
H           3.94775485284158    0.67449770607401    0.54830385963192
O          -0.03107146523191   -2.36441082933706   -0.55302806730474
H           0.15498648722842   -3.30367599129430   -0.58450104064032
O           1.35176424693117   -0.77207603539193    1.22070993143471
H           0.75130533403475   -0.02445162491078    1.36515435919228
H           0.87442399423513   -1.40012298047331    0.64917898418780
H           2.69890783067808   -0.24892237585419    0.43366606312080
O          -2.44974870772573   -1.89969381833178    0.33514739707000
H          -2.76239508114182   -1.23367719584722   -0.28787663960909
H          -0.96428723209401   -2.27282632419144   -0.21232708552547
H          -2.19465764602068   -1.36725050195293    1.11800367665740
O          -0.30588690650744   -0.22563013231173   -2.24267448346172
H          -1.03139093917042    0.12748124456251   -1.68732830388090
H          -2.32897240072613    2.10924742539911    2.46675098365647
H          -0.08971744689539   -1.08347717687780   -1.83641521359056
N           1.31280494782337    1.53569195328680   -1.19034748377389
H           0.76207262626369    0.82162767189334   -1.76690400913363
H           2.23012476259560    1.11656797639222   -0.88874056262784
H           1.43764954010320    2.40547794348034   -1.69485095075216
H           0.73411930658462    1.67752252394319   -0.31347864885126
