    26
        -50.46728909  Gyration_radius:  2.49349932828 Dipole_moment: 4.071
 S           1.58890493737853    1.29399303565131    0.16348368620640
O           2.47530934744369    2.60787605847207    0.06090150020280
O           0.61882099447459    1.53907580137661    1.20878344870850
O           0.93937274376334    1.14748340523373   -1.14262303797970
O           2.51040798556506    0.21419963068390    0.42898215084706
O          -0.47095698186728   -1.88277374477079    1.45970812761614
H          -0.58586449601842   -2.76611008090961    1.81235850965220
O          -1.68423562117759   -1.27658663434194   -2.64295123392266
H          -1.39017859620057   -1.33319898910273   -3.55305703185770
O           0.43378637318311   -1.56763175196519   -1.12389596291590
H           0.84554468369786   -0.68978120239195   -1.11152508891043
H           0.15723702643498   -1.75342800133987   -0.20848357594136
H          -0.89838667034195   -1.53556145824398   -2.08936293203198
O          -1.82963293929256    0.48781454441383    1.26181558291985
H          -1.57419599123928   -0.44508629961449    1.37188815048072
H          -0.99672774361682    0.98343492949063    1.40325316144442
H           3.27432308560135    2.26516072817635   -0.32589269859909
O           1.46026212281918   -0.60999201922021    2.68647514327170
H           1.06002349911215    0.25427442157008    2.83614304378282
H           0.27237732024308   -1.46631939056154    1.97877521527254
H           2.02762289195894   -0.45759619191853    1.90142909934161
N          -1.67218184983415    1.01589919237604   -1.29289265245491
H          -2.17634682337432    1.82880943699934   -1.62701832530445
H          -0.62588183027160    1.18645058059329   -1.28566632316565
H          -1.91799776021146    0.79058975662062   -0.27584402130343
H          -1.84140568839369    0.16900425272399   -1.89478392534184
