    26
        -50.45590482  Gyration_radius:  2.44285394455 Dipole_moment: 7.048
 S          -0.40101988531102    1.39244672946158    1.08243334881536
O          -0.34517252499434    1.48275212349549   -0.40087505139740
O          -1.74460508418525    1.23606248440811    1.56587788683437
O           0.42099125923294    0.09082801030864    1.41594289219457
O           0.39009813609396    2.45813136181508    1.67361679178776
O          -2.03588422815650   -2.03900190347803   -0.85874660135643
H          -2.77529883468848   -2.60384916333765   -1.08750812156745
O           2.91265806976306   -0.61560390990159   -0.39465053847068
H           3.47605380745534   -0.87162087742717   -1.12708705970564
O          -2.86756295743287    0.42975688500921   -0.67650580244249
H          -2.20264632712499    0.94858433652633   -1.14575991051427
H          -2.40579967894283   -1.11031796213430   -0.81168471499492
H          -2.70513315512872    0.67835053532265    0.25821406907771
O          -0.87117424441005   -2.17600810999745    1.55279433397844
H          -0.15331252497274   -0.70673211943490    1.54979819573350
H          -1.35682800962746   -2.18681579022014    0.69900256714689
H          -0.15289752327188   -2.80693051202616    1.47137050330898
O           0.46615462694225   -0.85919527967039   -1.41826774139662
H          -0.27401392616882   -1.47532267651099   -1.34612615960834
H           0.11574181611263   -0.00546167415049   -1.09317828054440
H           1.99445630324352   -0.84892375296642   -0.66707055884708
N           2.16073342390519    1.93120447836695   -0.06045916632785
H           2.60184401326682    0.97534233074478   -0.03972090342345
H           1.25316514803593    1.83898777127866   -0.58963360735047
H           1.71851744489931    2.19923674790164    0.87770410379243
H           2.78093486546694    2.64409990660888   -0.42948048472558
