    26
        -50.45526231  Gyration_radius:  2.41593658896 Dipole_moment: 6.814
 S           0.25864658901690    1.86542735603658   -0.33607533539180
O           1.56783244577193    2.23321136706514   -0.86310651129971
O          -0.59351726754246    3.16368989355833   -0.20337456273747
O          -0.44300062066164    0.93680981333169   -1.18661452495200
O           0.41497219078069    1.30816030455482    1.03195574089778
O          -2.57771502782474   -1.11975502612647   -0.02202782805405
H          -3.44376745817346   -1.47865540398950   -0.21853730541200
O           1.57402420769636   -2.04754687249877   -0.32975270685733
H           1.89071506069619   -2.91570728973843   -0.07535715299944
O          -2.33690573456386    1.54266320747742    0.95797121750664
H          -1.44545782498550    2.81580430975884    0.13802864792083
H          -2.50963743818562    0.71558012149554    0.47546060687801
H          -1.52916330974145    1.37746475549703    1.45914325248394
O          -0.21493172486345   -1.25691069792758    1.36147858925023
H          -0.03725784563808   -0.29460178676107    1.30691254645670
H          -1.11961549015295   -1.35573116555212    1.02090094562855
H           0.83595702113766   -1.81726305651152    0.31602762134050
O          -0.82007931738693   -1.53803788216072   -1.99695938354097
H           0.00347553076703   -1.92393910212775   -1.67709227296865
H          -2.01567887968302   -1.28348730122122   -0.81858231927736
H          -0.67466091178902   -0.57500988807511   -1.93133447486003
N           2.69655694005174    0.30199171735421    0.32304884367556
H           2.43618122857724   -0.64307273395643   -0.05661572912107
H           2.46793162417580    1.08542797971476   -0.38514910954089
H           1.96971249562676    0.56343979706609    1.02969525788887
H           3.64538349688706    0.34004758373823    0.67995595708080
