    26
        -50.47393292  Gyration_radius:  2.40352455033 Dipole_moment: 4.921
 S          -0.42136103463517    0.32510431274697    1.58209282043792
O           0.78098168395900    0.87483963399612    0.92930857103379
O          -0.67452464269894   -1.02967064657959    1.09351878125125
O          -0.10490318223982    0.23448262780344    3.10023338602875
O          -1.56290044200443    1.19339860661321    1.42234186427137
O           1.71074752388856   -1.36986855700485    0.09554127119310
H           0.88278338087037   -1.76275099994135    0.42734638077149
H           1.56080028266754   -0.42109005784995    0.33899744451615
O          -2.35486603071412    1.53466741459190   -1.00704977574764
H          -3.12950756120659    2.09896579355170   -1.00713408031172
H          -2.09488950090477    1.43265443637770   -0.05115371232443
O           0.32476807174404    1.80939269109093   -1.51462193751346
H           0.56684690993231    1.64283085421734   -0.57729400192006
H          -0.64133555099431    1.92603197695280   -1.49884001594701
O          -1.84133888104441   -1.14564148573125   -1.27021757498297
H          -0.46200870675092   -0.99420791020737   -1.97553524745387
H          -1.53999858323673   -1.22263068425923   -0.33572737549079
H          -2.24787679442878   -0.26294882752036   -1.31983483834919
O           2.30271562891376   -0.86347756340212    2.79878310607822
H           2.81869711058428   -0.05828992105739    2.70880519473923
H           0.74793198423655   -0.24764637636633    3.12574392722764
H           2.31355356209634   -1.29190027430248    1.92682679336805
N           0.54000817621095   -0.69601026016824   -2.23028314116091
H           0.80755029407379   -0.97649804842431   -3.16622477256506
H           1.17127916536890   -1.09777385990923   -1.49756292150128
H           0.54684714633472    0.36803714479622   -2.09806013566021
