    26
        -50.45426017  Gyration_radius:  2.48270790127 Dipole_moment: 9.501
 S           0.95937795895554   -0.75821649140379    1.73906467105177
O           1.65959273572761   -1.39740921911693    2.79692459499191
O          -0.58453650441808   -1.03008095310418    1.92861070715911
O           1.07659025687882    0.73387786701475    1.76617223057757
O           1.28820446004594   -1.19108496665445    0.38591633311351
O           0.28646973984260   -0.76128893134359   -2.44612329069032
H          -0.08199908684913   -0.93141015266246   -3.31401230104539
O          -1.70377599025241    2.14716679334827   -0.24428892325308
H          -2.29810826987925    2.88774995803073   -0.36797062841563
O          -1.30546779508601    1.69414674372473    2.28805722207854
H          -1.75602336140450    0.90013246144341    2.59125163838396
H          -0.35681450816247    1.42742614188184    2.23968790736736
H          -1.60682843166513    2.02795808047986    0.74684222572883
O           1.34786166437205   -2.98254017469880   -1.47832837476424
H           0.71021319421584   -1.60745340425501   -2.15207092733562
H           2.26894430794072   -3.22490361460249   -1.58692819525935
H           1.30671480924520   -2.48280623406627   -0.62996729278373
O          -1.65442636566612   -0.64766497806504   -0.44395225728185
H          -0.99584782720233   -0.97993488523781    1.03035729415933
H          -1.86103203492060    0.29764571283918   -0.48229126024535
H          -0.98407855376772   -0.81315028403180   -1.12896781835931
N           0.86639928057905    1.35242499307942   -0.67708805212701
H          -0.06397958566979    1.80980459261362   -0.70650275420855
H           0.84383539504091    0.48494148232785   -1.23565224020820
H           1.59826753056902    1.97270006002191   -1.00561678787644
H           1.04044696152864    1.07196938243706    0.38687626924215
