    26
        -50.45462551  Gyration_radius:  2.43332029565 Dipole_moment: 7.028
 S           0.19897344999232    1.87652191993911   -0.49762326647702
O           1.56556420242266    2.42847386630191   -0.65039543100926
O          -0.82167748104620    2.87719799745088   -0.35305610912156
O          -0.02296456027646    1.09459618480015   -1.84947505520828
O           0.18807200430952    0.87345076630139    0.55245936673032
O          -2.47796212276040   -1.03197453367246    0.71538878369119
H          -3.38489869087733   -1.27295396607197    0.52070918234287
O           1.59242432621070   -1.95704732479364    0.21144784737676
H           2.10024829389180   -2.71622361158060    0.50068511590848
O          -2.58563850863761    1.57775672584870    1.12490455646777
H          -2.48437433826314   -0.04857356160592    0.85363079546145
H          -2.24028555906159    1.76737815748287    1.99970522711122
H          -2.01221832233603    2.09005828639126    0.51182126801709
O          -0.04675824299020   -1.22393705523841    2.09546116694615
H          -0.94726265823835   -1.45796421441583    1.82935495784238
H           1.00452893844021   -1.70463496545090    0.98531456990164
H           0.05690025475653   -0.31384190021805    1.75684032177454
O          -0.70839943750516   -1.33082398339096   -1.30674104380699
H          -0.37521351045607    0.17240491327166   -1.66197620343309
H           0.08221137699779   -1.67027508907512   -0.86197083780831
H          -1.38486574682388   -1.24415898265148   -0.60153784597077
N           2.57134741685716    0.21153102394844   -1.17529625046152
H           2.15448791366899    0.04816019121434   -2.08916838805614
H           3.58435990447868    0.18290103266506   -1.22707294682305
H           2.18148083025152    1.28067138016460   -0.86809446482732
H           2.21192027699252   -0.50869327761810   -0.51531528656920
