    26
        -50.47393299  Gyration_radius:  2.40342798503 Dipole_moment: 4.922
 S          -0.04293197983832   -0.68610756839322    1.52155466217952
O           1.18417095079638   -0.15592053407668    0.89933570715967
O          -1.18917581098355    0.13466923604351    1.13359069483683
O          -0.23599908253393   -2.08418431602068    1.22037202016349
O           0.14146804769079   -0.55426740738848    3.05827365616973
O          -0.58793574923793   -2.63575123524490   -1.27313152775164
H          -0.73365700799215   -3.57826377288859   -1.36769239164954
H          -0.46267495329941   -2.47815624745939   -0.29784468321080
O           1.48802784164743   -0.88347925158569   -1.63680083629378
H           0.88966996989940   -1.64922685917517   -1.68995349167914
H           1.55499474527613   -0.69118069966943   -0.67581768965472
O           0.23643434408299    2.15848584133938    0.31262298697011
H           0.80649042903176    1.36282148749477    0.46714807423510
H          -0.62079874522807    1.81595818745549    0.62511393919065
O          -2.13021967821089   -0.36876670497685   -1.27954570080088
H          -1.79210452963988   -1.26917585600556   -1.42694495504919
H          -1.95759842772234   -0.19675508462952   -0.32527406751149
H          -1.06172018188586    0.57103853693540   -1.91043407406797
O           1.05779818910983    1.94563469935037    2.99532856936406
H           1.99036391872661    1.75347355115152    2.86853413402428
H           0.74685365599336    2.34296909384131    2.16506374625938
H           0.40204054606742    0.38313503496690    3.17551765073667
N          -0.14789420817452    1.09588301817227   -2.12791553860202
H           0.61344855480013    0.34205156643167   -2.08410512816590
H           0.02410645437610    1.74894945848723   -1.32748770676933
H          -0.17315729272982    1.57616581582917   -3.01950805009464
