    26
        -50.47393293  Gyration_radius:  2.4033761274 Dipole_moment: 4.920
 S           1.37160423123984   -0.79870481921776   -0.51664274525222
O           2.37179150242013    0.23910687701356   -0.44501551096138
O           0.84797377789071   -1.16419759334844    0.79888814268168
O           0.26000460239223   -0.42782275058462   -1.41136644329799
O           2.04052454620368   -2.05860038030271   -1.13171927710916
O          -1.61034221090726   -1.49014362131707   -0.00609453509646
H          -1.06664155198148   -1.04861911896642   -0.70675585484048
H          -0.91874013468669   -1.66883630806034    0.65721076385994
O           1.57370199219028    2.47634001007561    0.55658895414779
H           1.93590615652431    1.63396650385929    0.16823350514545
H           2.31069780352953    3.08834213877346    0.58377500319580
O          -0.61438466216618    2.05218345205308   -1.03812491274881
H           0.13800309936947    2.45321877605851   -0.56861531290832
H          -0.27013267517406    1.19122359458959   -1.36251001232032
O           0.22799955176052    0.88614236997043    2.34008227712704
H           0.55346956286423    0.05956558488851    1.91490802854726
H           0.76253208854201    1.59156838226615    1.93586560844975
H          -1.16729927146847    0.99655147615791    1.65836475157612
O          -0.23918965361105   -3.34796014675688   -1.61559914574379
H          -0.90885981015519   -2.98054115735212   -1.01533292732162
H          -0.42749375388910   -2.98285093286215   -2.48386190006174
H           1.28622743176151   -2.66705838427205   -1.27678217647562
N          -1.96650414502927    1.00255626808138    0.93804969924565
H          -2.10374018434387    0.01111782250738    0.62952865142924
H          -1.56899176864308    1.53756921129195    0.09811095338541
H          -2.81811650463695    1.41588274542370    1.29881438535228
