    26
        -50.47393291  Gyration_radius:  2.40341662569 Dipole_moment: 4.919
 S          -0.49081292794288   -0.29453176856886    1.56773051574082
O          -0.70499139840427    0.20298221610267    3.02368911187017
O           0.94789503575020   -0.31937315716711    1.30767104644412
O          -1.09579336127005   -1.59997938767852    1.45604706690638
O          -1.14147211075345    0.68855394631231    0.68236420982783
O           0.99758192339758    1.95408844787077    0.03158029635299
H           0.06581291177995    1.64449231565967    0.16414624994955
H           1.47692808080436    1.26641138567106    0.52892402110122
O          -1.57182946218315   -0.22576147787628   -1.77374955953156
H          -1.50885152358894   -1.18714863633942   -1.63561661867655
H          -1.60496895315436    0.15069620561982   -0.86702564601289
O          -0.89234569826774   -2.71794318852080   -0.85784346143078
H          -1.29945138803313   -3.58486204285810   -0.82380885187795
H          -0.99398434350776   -2.33551487993227    0.05596673636810
O           1.65461269913741   -1.70170540319718   -0.82621426359888
H           1.52346607596312   -1.28594904223265    0.05689161522475
H           0.88214682562193   -2.28314552149707   -0.93554815579579
H           1.36593671003990   -0.47214277947115   -1.73715203533637
O          -0.03549344504561    2.73333251302402    2.53077460930946
H           0.51880582382624    2.73252725971726    1.73294367369318
H          -0.89722397493899    3.05942943242016    2.25905545361848
H          -0.39844045183446    1.13318121735859    2.99192006357252
N           0.93225576316345    0.41184589683420   -2.17056339158668
H          -0.12212039526705    0.21668243703899   -2.18431585688135
H           1.30405126062337    0.62239143727694   -3.08910068489794
H           1.08828633409216    1.19144259444246   -1.48876613435353
