    26
        -50.45462541  Gyration_radius:  2.43336711746 Dipole_moment: 7.030
 S          -0.44828335155865    1.70415316787590    0.83739861524942
O           0.65347686470569    2.61529593548832    1.22659951820789
O          -0.08512954712926    0.97980774491226   -0.36780145841814
O          -0.45706413490869    0.63865230496054    2.00039336745830
O          -1.73402266000157    2.34101924688719    0.76472469872139
O          -1.97070382355723   -1.59012105134982   -1.14430600593517
H          -2.75637557582381   -2.13645561831332   -1.09198663524492
O           2.15159554855859   -1.27827367922078   -0.37837805732552
H           2.89146559188372   -1.76806132912725   -0.73964789574710
O          -2.90801728313333    0.88154184448790   -1.09968854324474
H          -2.60408207865932    1.34114727280333   -1.88515620230828
H          -2.29252744340938   -0.65128950362015   -1.10837260541775
H          -2.56178349392633    1.41279952548416   -0.34797645349116
O          -0.29269746669253   -1.71937211383638    0.97160853639193
H           0.58457605468021   -1.69897202274181    0.56165820861676
H          -0.48227908405166   -0.29045157819865    1.61840112100718
H          -0.92803977616948   -1.70846819294563    0.22415194700281
O           0.44823543199110   -0.73343587080136   -2.26916035301925
H           0.23303905669215    0.07663096574813   -1.76800169730083
H           1.54834032976204   -1.07308585170024   -1.15444370642581
H          -0.33708759895821   -1.28530822623389   -2.14577886020413
N           2.30865821439935    0.76887518376531    1.45707219269284
H           2.23206201299473    0.11759222164812    0.64869641209211
H           1.60236408498782    1.69994285394349    1.30270957589283
H           1.93218539678401    0.30547339332091    2.28117390902534
H           3.27209474054127    1.05036337676504    1.60611038172672
