    26
        -50.47393300  Gyration_radius:  2.40341372455 Dipole_moment: 4.921
 S          -0.82012923293922    0.96962745075039   -1.08405515282984
O          -2.00117747681354    1.17657944076361   -2.07157176889221
O          -0.17575381340449   -0.30411688405729   -1.45350953297615
O           0.07881011438649    2.08859995089692   -1.23344460378229
O          -1.37367415619141    0.87110828785320    0.26569037759163
O           2.26419456294235   -0.59074164415726   -0.44447521971913
H           1.45002050522607   -0.51972356533080   -0.98948781695888
H           2.49130196133097    0.33017955922130   -0.22633149738112
O           2.15356379655626    2.04601174571894    0.29601370436174
H           2.67091426791084    2.83829987670145    0.14377575818503
H           1.36818056149324    2.11498353136378   -0.31233161014828
O          -1.29339278225199   -1.73390696037432    0.36456561183685
H          -1.66466177599824   -0.89879037448228    0.70304477322600
H          -0.78395746040228   -1.39286545111863   -0.41396567384274
O          -2.93850913110394   -1.30886495639973   -1.87832760169106
H          -2.49114736504144    0.32948134709217   -2.01960117263135
H          -2.39887344725071   -1.71850518017233   -2.55926979842326
H          -2.62542675027901   -1.66726214224179   -1.03134677548733
O           0.39932995087608    1.14493326770940    2.20070520866908
H          -0.36034207398473    1.17038341931720    1.57440282487283
H           0.77649732804380   -0.36133995194133    2.09057755525958
H           1.11119057997392    1.61731134539568    1.73497851930352
N           0.99910936643208   -1.34501665179477    1.71559041796732
H           1.41974707076142   -1.94605451556542    2.41420342937354
H           1.64124983322856   -1.17431835165987    0.87399318318350
H           0.10293556662303   -1.73599258347622    1.34017688090996
