    26
        -50.45262172  Gyration_radius:  2.52480881356 Dipole_moment: 4.450
 S          -0.51524757408559    1.19558717852975    0.68940399032466
O          -0.55201192314565   -0.26229319570092    0.77155892570556
O          -0.13269758252426    1.61162487288088   -0.66341957120237
O          -1.99044766009311    1.69640848880069    0.87044376934584
O           0.30758133755656    1.79341155828381    1.71446588428121
O           1.78027714536680   -1.28182128300595   -1.96677894588413
H           2.47692436828344   -1.17392178552354   -2.61597246766510
O          -2.05282616116195   -1.47017731547480   -1.03328292614647
H          -1.82057306744800   -0.94991528963979   -0.23420913581437
O          -1.62413335742038    2.03952007885924    3.46412177765569
H          -1.67821600499353    2.94356250086758    3.78233268870075
H          -2.12558183501615    1.78891479549659    1.83725760668643
H          -0.73820786366454    1.94189905431798    3.05649533939662
O           0.10559507359499   -2.83766671993747   -0.24104564293993
H          -1.54298919559449   -2.29690142624674   -0.90474863840096
H           0.81145086184303   -2.60218885451769   -0.85432363926964
H           0.04049783158834   -2.10132208912289    0.38279673996425
O          -0.47737088871718   -0.10264848843549   -2.40942290646769
H          -0.36416797557328    0.70093511523147   -1.72066461189206
H           0.39619043454334   -0.61389678869300   -2.33314564869806
H          -1.22283101551196   -0.70910971514450   -1.94938258356676
N           2.25397642546922    0.18254250650731    0.15253348325039
H           1.44337724153289   -0.05003360902293    0.71996267870883
H           2.10758723814528    1.14989356724721   -0.11564639281532
H           3.06938388449366    0.14763413219178    0.75287305039227
H           2.04446025251444   -0.74003728875651   -1.15220280364811
