    26
        -50.45262173  Gyration_radius:  2.52478092708 Dipole_moment: 4.449
 S           0.16109788521714    1.35122608137461   -0.56439660125753
O          -0.30453635508805    0.67799602652802    0.64535781770680
O          -0.92083292670253    2.42642317423456   -0.92916776948139
O           1.43145946875274    2.01333680063254   -0.38275222116701
O           0.16330144111554    0.41265359367185   -1.69074451434978
O          -2.63581669570542   -0.54380655039131    0.44720171328179
H          -1.98930704095584    0.19056090868950    0.52497397814080
O           0.48790727566764   -2.90466265497197   -0.07192127774562
H           0.91315054303844   -3.64098262991655   -0.51392347154212
O           0.40744267001563    4.29972442810556    0.37695583390706
H           1.01839255129206    3.54333924681626    0.25396547609746
H           0.75627929734687    5.01938988406020   -0.15393598739104
H          -0.67688307464322    3.23306321244270   -0.42783839428879
O          -0.88778506363073   -1.68189617790077    2.12246830691168
H          -2.40344511051457   -1.11397482157855    1.20925947299565
H          -0.40151240835455   -2.33130539796896    1.60132738227418
H          -0.49693986516567   -0.82368418009631    1.90724166778189
O          -1.28671780646880   -1.56586236783498   -1.39148830814600
H          -0.69466009710070   -0.70941452164337   -1.61224019274357
H          -0.65017072518281   -2.18050400993265   -0.89410542302444
H          -1.97831736862552   -1.19899830837014   -0.66862171966162
N           2.10166281704374   -0.84598685065759    0.05921281188608
H           2.18383805608872   -0.47296399675467   -0.88059641791355
H           1.17408503910268   -2.16234184101143   -0.00051462776402
H           3.01925150740614   -0.81178583784288    0.48742071376071
H           1.50905598599353   -0.17954321963307    0.54686176174835
