    26
        -50.45262172  Gyration_radius:  2.52477862639 Dipole_moment: 4.450
 S          -0.86723060066803   -0.04713510523784    1.18995939743058
O          -1.96133385861389   -0.98951473019806    1.19357689717236
O           0.41172561533216   -0.65708824325702    1.56647540167770
O          -0.72943312078064    0.65565376994843   -0.08306960338546
O          -1.13796377609196    1.04487887223223    2.28268868977532
O           2.15707058489433   -1.11272177927907   -1.67015858939853
H           2.79009994946721   -1.81925729060771   -1.80602027810163
O           1.21998201185146    2.43174324610589   -0.20133889363031
H           0.35431957757361    2.03564753776184    0.03716108790162
O           0.66681425448608    1.18673936225765   -2.50360653146337
H           1.22296073225020    2.36405340819023   -1.17876654111406
H           1.24550672598148    0.41617572228896   -2.53695550224240
H          -0.06141569148978    0.94548736225303   -1.91444138850806
O          -3.74947538020829    0.71760864663526    2.05500544912635
H          -4.20106635266147    0.37212152836299    2.82843867478269
H          -2.10910046903741    1.18030486731091    2.29181362492182
H          -3.32213015047346   -0.04878344172395    1.61844672069210
O           2.39210633662994    0.32712140933773    0.46404493312285
H           2.02039098613983    1.29304509170306    0.21128645743523
H           1.59142745690374   -0.09905213767340    1.02102165985553
H           2.40338070115336   -0.21058737246236   -0.39679900051800
N          -0.15336292705450   -2.07510542285423   -0.89829982708289
H           1.27306493815334   -1.54585703744248   -1.42974291300808
H          -0.68834144376868   -1.21556886657943   -0.80797980365737
H          -0.73256835267151   -2.74732943270451   -1.38732160244337
H          -0.03542772729017   -2.40257997433513    0.05458151068781
