    26
        -50.45444107  Gyration_radius:  2.55331103071 Dipole_moment: 4.684
 S           0.59546296373680   -1.20036013899362   -0.46454510539871
O           1.44445023110905   -0.15294681612740   -0.95579383013385
O          -0.64999540701990   -1.34406858599274   -1.18508969720610
O           1.35995981282088   -2.53026797673590   -0.48302052215850
O           0.29631959069630   -1.00342335644702    1.01803617097267
O          -1.04696745199555    2.46000946722737   -0.75287878345722
H          -1.77899448683013    3.03452601871936   -0.98176618194980
O           0.95314393370269    2.03663894588945    2.66794702026655
H           1.51041455539847    1.33830083650721    3.01506834118612
O           1.63002481856160    2.35832108844377    0.11710644929761
H           0.78604683987744    2.67475615304136   -0.23450347694805
H           1.32788136070917    2.27217526574120    1.78460151079838
H           1.74573035176611    1.47101342989462   -0.26155080170673
O          -0.48909518522754    0.82295691879416   -2.73415583832714
H          -0.72133098415679   -0.02126404649347   -2.30267976880969
H          -0.88660433137112    1.87757024890102   -1.54200347991535
H           0.47380598596675    0.83038584981133   -2.73002660748214
O          -1.12885767993585    0.95810397113789    1.48923809473961
H          -1.17900881196815    1.49752247719512    0.66905980349746
H          -0.37306768658121   -0.17306188141782    1.21397180181239
H          -0.48366568725807    1.43757909116304    2.07578718382017
N          -0.75424089664500   -3.83047032426368    0.15799720965076
H          -1.26590408082900   -3.11270313512457   -0.34805618974273
H          -0.96868280376521   -3.74618937428586    1.14276372450002
H          -1.04422137035642   -4.74358990955128   -0.16616993436711
H           0.64739640997628   -3.21151421705352   -0.20933711292333
