    26
        -50.46972953  Gyration_radius:  2.43095866699 Dipole_moment: 5.138
 S           1.30063907774367    0.65637887568733   -0.58738884224906
O           1.70214328791432    0.86873504156190   -1.95317013638465
O           0.33508835506786   -0.60240435158110   -0.65367274983247
O           2.35762460850914    0.33828110094842    0.34283632443817
O           0.44178540502130    1.74510391262976   -0.07859764251148
O           2.18567689747243   -1.91910647868798    1.71781039655562
H           2.81919049016620   -2.54843423058490    1.37237171108654
H           2.33964748113717   -1.08236678674562    1.22548117112978
O          -2.64582998863327   -0.88467431095670    0.32793192269885
H          -2.64381364590863   -1.73579495044540   -0.11405917194956
H          -1.96381916844014   -0.94548272293243    1.02069687705317
O           0.68415950819246    1.23016715316711    2.49721843169925
H           0.58925866709675    1.59693594046207    1.59386951108307
H           1.62054169911507    1.02665788338534    2.57745592115462
O          -0.43442685306319    0.28277755678053   -3.29571758503312
H           0.42840241147311    0.57225009770296   -2.89631132880859
H          -0.36297012115316   -0.67194782632235   -3.35732922761253
H          -1.40712836438902    0.80017193981594   -2.12643887100808
O          -0.35529912264622   -1.08437789309572    1.81758886632398
H           0.08064076152404   -0.82170429464008    0.28347756110504
H           0.40669546772873   -1.66482844610604    1.99306494606964
H          -0.09300809568988   -0.21729610119920    2.22419921195189
N          -1.79287888275246    1.18211766037234   -1.21515214293789
H          -0.92232622513155    1.53743380303783   -0.69806298710174
H          -2.21107245338693    0.41051579378845   -0.64538382098961
H          -2.45892119697390    1.93089164394253   -1.37271834593188
