    26
        -50.45262173  Gyration_radius:  2.52476013036 Dipole_moment: 4.449
 S          -0.78470691267129   -1.10645787973748    0.57439788325979
O          -0.34619310152109   -2.56548869406654    0.94675084387896
O           0.34199105093066   -0.23323884011508    0.89315274507596
O          -1.00527433919007   -1.13087306220850   -0.87486100827246
O          -1.97732396847023   -0.77546803677565    1.31822751297099
O           0.41372521539881    2.08909165283788   -2.03569748807165
H           0.07616589752141    2.53700027910483   -2.81275970242944
O           2.59174368084943   -0.76112601599602   -0.38269021919786
H           1.86096205894565   -0.85776302229652    0.26525487991222
O           0.94030719257978   -0.43435024813952   -2.22980581508385
H           0.08801201793481   -0.80545072589570   -1.71142139900669
H           0.80177546668457    0.57122166136774   -2.23787100486109
H           1.73650995772184   -0.62366969396132   -1.54759386686263
O           2.18535553402146    1.81854201541562    0.19830256494641
H           1.73555375495219    2.19727738084385   -0.56591192155352
H           1.50547215046050    1.34547290878924    0.69785643905494
H           2.89903009372438    0.15523030510128   -0.22216920109324
O          -1.45089008400188   -2.35639604974263    3.33741000791927
H          -0.57077535078877   -2.67929677383521    1.89446399025655
H          -1.79931663134095   -1.62057436449783    2.79182981376846
H          -2.19313603018191   -2.93931254810221    3.51277991956514
N          -1.50499522689705    1.66704029721810   -0.30371878432867
H          -2.09903633807835    0.94105128936178   -0.68997570319644
H          -0.35591106463999    2.00436946816122   -1.38184618338703
H          -2.10426270011148    2.35963056658717    0.12954682002401
H          -0.98478231383706    1.20353814055993    0.43634885671285
