    26
        -50.45262173  Gyration_radius:  2.52481926722 Dipole_moment: 4.450
 S          -0.66112940746556    1.16552411820404    0.61231492856347
O          -1.04766891459075   -0.00983781901194    1.39886045801303
O          -0.04280390450948    0.74501220342283   -0.64245082785428
O          -2.01128827686097    1.87016540095780    0.23773936100755
O           0.15720724935677    2.09426252102509    1.35594987905826
O          -1.45990727177998   -0.93200253218297   -2.10779601635969
H          -1.17985126373732   -0.08724217820343   -1.69407807403864
O           1.23914985120364   -2.66588284771293    0.19616325387125
H           1.51265823138150   -3.38918683890792    0.76219518098983
O          -0.85134022251895    4.24374411084584    0.25324128461098
H          -0.24231255694119    3.62038113124533    0.70160687906348
H          -1.78641084722276    2.81034887043986    0.07350185666236
H          -1.15426168592299    4.85813373213532    0.92570313537456
O           1.19357032252064   -1.22568911356558   -2.27906312512673
H           1.07015419726522   -0.39052721837243   -1.80692648000506
H           1.43486146711145   -1.87481259581193   -1.60808817102003
H          -0.64314605350043   -1.22884837171855   -2.56022312322753
O          -1.28052645468575   -2.09668419558706    0.09603488800587
H          -1.45656474103741   -1.70446600883904   -0.87888124590318
H          -0.31895993478491   -2.42178257710317    0.10563604189676
H          -1.26129171091517   -1.22391821698189    0.70492711366384
N           1.82801012603260   -0.36014912275109    1.28982996461281
H           2.74300929376217   -0.03238047521940    1.57590086526632
H           1.48291227584839    0.27478601523496    0.57505732725023
H           1.54168447220183   -1.80724881395934    0.64137041038340
H           1.19424575966282   -0.23169918757789    2.07147426518032
