    26
        -50.45731605  Gyration_radius:  2.44438155111 Dipole_moment: 6.864
 S          -0.48250348620092    1.86056029399768    0.55643838442176
O          -0.96758602198162    1.66328986861308   -0.79836891156290
O           0.61278539276234    2.80192442770458    0.63652344735136
O          -1.66445158001316    2.37552535647169    1.43259482707806
O          -0.07073221229629    0.56910611819450    1.16357124950090
O          -1.87848517663634   -2.10678240245295   -0.46684609217672
H          -2.31760902440952   -2.95615669062747   -0.52013629484450
O           2.29576332736495   -0.86741952366282   -1.13179702102020
H           2.83691234945797   -0.99006703831425   -1.91287618572441
O          -3.04176924982969    0.39012364495805    0.28785910821327
H          -2.35637045861683    1.70036654772678    1.27939771297994
H          -2.54559343026575    0.83936858154714   -0.41425922929789
H          -2.76739536014530   -0.53707166308638    0.21507666772800
O           0.41271742949355   -2.05444725026610    0.89139503157560
H           0.16740219076540   -1.13930292196184    1.12314842258124
H          -1.08808911004673   -2.22530882213276    0.11010943761311
H           1.13277994386807   -1.97451899535101    0.25569811324648
O          -0.11516205134028   -0.52391411377117   -1.98918698670584
H           1.35738142919409   -0.73355677587846   -1.47646727222442
H          -0.77083160365723   -1.14780299739934   -1.63850876942180
H          -0.40904824348958    0.35070790117982   -1.65355742224764
N           2.39732337229011    0.94043490156563    0.81554240570622
H           2.56943278851442    0.32918562491385   -0.02124436070218
H           2.10798329391597    1.91166317430342    0.56520361111767
H           1.43716726487924    0.61702701297084    1.19443578732892
H           3.14797821642241    0.90706575075694    1.49625432948601
