    26
        -50.45262173  Gyration_radius:  2.52477892057 Dipole_moment: 4.449
 S           0.29863149307273    1.36485255931360   -0.46722665711747
O          -0.69311423509577    0.62646832383154    0.31047742644830
O          -0.49641127707579    2.28844563329909   -1.45445574649291
O           1.15336789860012    2.18939965203041    0.35423129009835
O           1.04956809032290    0.44336233799500   -1.32542358463569
O          -2.33731720396774   -0.89457698224215   -1.08602420923795
H          -1.93935002908492   -0.08108469511127   -0.70768362324956
O           0.76916211954958   -2.81276598413711    0.42082765574896
H           1.45114430725252   -3.48226285668421    0.35013740382102
O          -1.74061495805668   -1.80124876285421    1.35926440409142
H          -2.51783767263404   -1.43419571937834   -0.28847589804926
H          -0.97375663922956   -2.37588159231308    1.25186414923767
H          -1.39773123563469   -0.89691350328626    1.34333606056761
O          -0.07483823354297   -1.71354204398006   -1.76144180385442
H           0.22954031092729   -2.24120262167940   -0.94946449975129
H          -1.09140087173135   -1.44785813984519   -1.58469937017094
H           0.43497527895406   -0.78394235949173   -1.66791027787417
O          -0.37363791729934    4.31269839088423    0.23869750893058
H          -0.67555042299172    3.11671602424218   -0.96112949492620
H           0.27983863318012    3.64577750612324    0.53647848490890
H           0.13065957608724    5.07641507997916   -0.05088333956283
N           1.77254359211415   -0.55786740548969    1.29713608125461
H           2.27144830708526   -0.40449269717381    2.16551094430538
H           0.93635225147338    0.01969163090526    1.31607207359502
H           2.33230256927871   -0.17012131245677    0.54516788506250
H           1.20202627843371   -1.98587048247156    0.81561711686440
