    26
        -50.44909142  Gyration_radius:  2.56467866157 Dipole_moment: 4.382
 S           0.40494066132675    1.42710586289210    0.42755427046290
O          -0.52533413397781    1.24546183475513   -0.66731078461619
O          -0.20830003089498    1.14829642974317    1.72309921775300
O           1.61841128812671    0.63134692947361    0.22815339565639
O           0.89195221902178    2.91226201869402    0.43501297156189
O           2.48873466746994   -1.30146463956615   -2.16297026499942
H           2.93093749150987   -0.45778306106361   -2.03532204602985
O          -0.66896102379821   -2.57061086581856   -0.22792194599398
H          -0.92287139713218   -3.39622452187581    0.18687755833234
O          -0.04006761763412   -0.71639089924121   -2.37713303152020
H          -0.49172630426557   -1.44472947851441   -1.93678996600720
H          -0.21571520028236    0.07926417566927   -1.82592109078587
H           1.55235934423008   -1.07338653564558   -2.42854140430307
O          -1.20758143997271    3.54637917285914    1.93038958966440
H          -0.98082433056127    3.94221850468005    2.77479674499190
H           0.13730089422480    3.39684289648744    0.82120711450294
H          -1.02216713680086    2.58607416941895    2.01487186164808
O           1.74189026178802   -1.82201062824694    0.17066805570500
H           1.66985849418015   -0.77871037162930    0.35175697318796
H           0.78213969537319   -2.16075789034860    0.04173189879905
H           2.15772210507690   -1.77650510264352   -0.79367180775468
N          -2.10197105900058   -0.64793245749368    0.72175011562678
H          -2.32791702958667   -0.06780247434883   -0.07951793463871
H          -2.94499881628330   -0.77831716125868    1.26745812712261
H          -1.27140257882755   -1.83636783020078    0.17002125402445
H          -1.44640902331002   -0.08625806677826    1.26975114760874
