    26
        -50.44909145  Gyration_radius:  2.56472104255 Dipole_moment: 4.382
 S          -1.53694510353048    0.13996334503216   -0.03995117085182
O          -1.01910928917846    0.22563634853311   -1.40746437599077
O          -3.06705156359679   -0.13400139122886   -0.20339170900123
O          -0.93788919777965   -0.96603021767972    0.67773182693658
O          -1.38001375444507    1.40647316269877    0.66966451605289
O           1.08625076092911   -1.60124913359807   -2.97055217731627
H           0.15509551794619   -1.62271133574956   -3.20752302897030
O           2.64972048480844    0.28038124920164    0.08587535790242
H           3.41543885619143    0.84142666319393    0.21646246271811
O          -3.47709432967198    0.99802480564545    2.16224068700675
H          -4.07001103222891    1.75233853645508    2.13722084516365
H          -3.43005313294561    0.07001280682001    0.67984740941577
H          -2.62026061622834    1.30565059351503    1.79503199046657
O           1.30341409419577    0.71532085685244   -2.04247303219822
H           1.35072687129341   -0.19547981212576   -2.56497288503345
H           0.28988548269019    0.65749544760978   -1.73253723118779
H           1.87246248335621    0.57992213693474   -1.19965469265226
O           1.15169943307322   -2.15810744190534   -0.42709626213050
H           0.32680326675323   -1.81107502945220   -0.01861604265164
H           1.13577456121054   -1.99096928661210   -2.05134765770031
H           1.86528596219060   -1.61087563736590   -0.08114187292826
N           0.96260897561421    0.65895813377443    1.99968061812399
H           0.17021131488860    1.12670078371947    1.55378484595742
H           2.01137854821431    0.45431925316646    0.87492137327552
H           1.17570903959334    1.14396368506357    2.86273332579072
H           0.61596236665873   -0.26608851249216    2.23152690980202
