    26
        -50.44909139  Gyration_radius:  2.56447791616 Dipole_moment: 4.383
 S          -0.68319818060993   -1.34082643359719   -0.34495143417545
O          -0.76517131089747   -0.23652496950729   -1.27821874199827
O          -1.71283217721947   -2.43755021231268   -0.76925704826064
O           0.64326554314909   -1.95127475511273   -0.32915456254645
O          -1.09864519110111   -0.93005841908669    0.99825055645912
O           1.54500094181311    2.01362538579662    0.81517798898774
H           2.37789641027658    2.31959627656991    1.17687587174525
O          -2.14906390495337    1.87710876054068    2.10339612607907
H          -2.74906099247420    1.13030653410756    2.02673691870528
O           0.04516861226436    0.71217881912061    2.42393349994648
H          -0.83629584907728    1.28312462236096    2.46918402575256
H          -0.32903944829163   -0.09435902690705    1.84449168950331
H           0.68226955092689    1.23603565114472    1.81388498853978
O          -1.14327385088642    2.18562540173773   -0.27915342577441
H          -0.23069151684753    2.45099807335565   -0.12043588888393
H          -1.09379465691759    1.30048779101297   -0.70558358646435
H          -1.90231535693720    2.11725221354657    1.16490361910130
O           0.12502729720504   -3.47543917290556   -2.37868087594351
H           0.56283853483696   -2.93854083897612   -1.68318645558567
H           0.33834597213504   -4.39177324283800   -2.18901437215064
H          -1.28069661398874   -2.87289227578001   -1.52902646978237
N           1.99374929898891    0.36599682469270   -1.11766969524793
H           1.68677045732468   -0.54051523024555   -0.75768618996047
H           1.77058183646640    1.37107441346927    0.04271396381534
H           2.89251209850644    0.24340049491582   -1.56789032584734
H           1.31065250635562    0.60294332490159   -1.82964019602732
