    26
        -50.44909146  Gyration_radius:  2.56468967894 Dipole_moment: 4.381
 S          -1.31517248234605    0.80391596981417    0.08545831140917
O          -1.80198446418050   -0.20698614744216    1.02005483275295
O          -0.23526714860771    1.59979677130754    0.67365681227339
O          -0.91063946112737    0.22799788900392   -1.18017351872600
O          -2.47406031007000    1.82101748166042   -0.17034690676156
O           2.70453267606957    2.25841308725466   -0.39103250386646
H           2.03348514876149    2.94578303278237   -0.36199154749690
O           2.14469624332762   -1.54830650006720    0.33336384264982
H           2.60767406592068   -2.21695568538111    0.84005570249149
O           1.65619610162479    0.34742121067767   -1.81680786158076
H           1.97450712113670   -0.46208033405361   -1.40236848133865
H           0.68342034854505    0.35768141583991   -1.67083542544469
H           2.38900301902809    1.60783113865040   -1.08124875783116
O           1.93332496593752    0.74197431571949    1.44755694938934
H           2.42507414529100    1.39417675223039    0.78593783743722
H           0.93698760770614    1.04568793427204    1.24378697768003
H           2.03946020853302   -0.19438578758147    1.04210067681388
O          -4.21052358356086   -0.17708451535967    0.02505881310206
H          -4.86682791001842   -0.05850737711936    0.71523910943262
H          -3.25249256800456    1.24813962336425   -0.30945182481874
H          -3.37419133544998   -0.42346273205492    0.47617041948474
N          -0.29186800809577   -2.29562229993368   -0.06281641149817
H          -0.63373807044732   -3.23660721381453    0.08947047314519
H          -0.49451062046236   -2.03466623542586   -1.02224340449251
H          -0.85180115638880   -1.65343412485610    0.50255388188776
H           1.18471545687847   -1.89173766948817    0.18885200390416
