    26
        -50.44909138  Gyration_radius:  2.56453919346 Dipole_moment: 4.380
 S           0.67642206860764    1.22751903028564    0.64767734022438
O          -0.76623677769842    1.18702009297313    0.52858351707856
O           1.16844905073369    0.33071679389336    1.68987043437808
O           1.32120392071565    0.95614940810509   -0.63921888446797
O           1.11133934633360    2.68207051736014    1.01927475513889
O           0.08223163306890    0.36839735872422   -3.52514667681810
H           0.53223257263829    1.19943827421078   -3.35059966877541
O          -0.78513061679894   -2.38904771204464   -0.88474923693430
H          -0.71277225761161   -3.34400431869429   -0.85336384926123
O          -1.78287087742288    0.21364125456147   -1.71365631695944
H          -0.74177724553529    0.38834620048231   -2.95965657702489
H          -1.82350327543776   -0.72318596163712   -1.49211355958111
H          -1.45817965114144    0.66612870854131   -0.90277647751874
O           0.77316077899171    2.07892996281747    3.58212001809049
H           0.90337642077139    1.25478982818626    3.06497451665469
H           1.56171487891928    2.19112975762068    4.11762225205812
H           0.89679438779720    2.74736800637910    1.96964275245986
O           1.21426708419036   -1.15566746223602   -1.89094673825133
H           0.80993901027258   -0.64399749272650   -2.71531812142945
H           1.35930736779495   -0.32008444740157   -1.25297105304444
H           0.43719355401803   -1.69348987015316   -1.49167383459368
N          -0.97373402203305   -1.45660452331144    1.51254834789223
H          -1.67034348805142   -0.72100083234326    1.45500157458424
H          -0.09086346107747   -0.96388866271522    1.66564762698201
H          -1.17214453756849   -2.01868271955708    2.33120087381803
H          -0.87007587447637   -2.06199120132307    0.08802695529911
