    26
        -50.44909140  Gyration_radius:  2.56456295817 Dipole_moment: 4.382
 S           1.21193764751628   -0.52768789102508    0.79773628218017
O           1.33925123519325   -0.29938814811422   -0.62664085497521
O           2.44268114065022   -1.35720047434109    1.28780368329026
O           1.18046943943720    0.72053007317236    1.55495841247924
O           0.04740302703416   -1.36415088907691    1.09731591432255
O          -2.19381769931096    1.18449109181178   -0.94381268342946
H          -2.87635363063320    1.85049436880413   -0.85024781307402
O          -2.10827281916590   -2.72743457073259   -0.82683297607170
H          -1.46322889735858   -3.26700881439425   -0.36168743152833
O          -0.70114751615312   -0.99152759232913   -2.16476688927900
H          -1.57991491386453   -2.18492151247182   -1.47939864624781
H          -1.22451530633594   -0.18320985392269   -2.13094224195257
H           0.11655359214269   -0.80201800036391   -1.65173299231005
O           3.77867479448919    0.91112350228979    1.62682495175086
H           2.81417037376263    1.09367038400326    1.63452946323399
H           4.08896658299035    1.05191027132449    2.52405461914609
H           3.16182292129552   -0.69754593152453    1.32239873087459
O          -2.30275634052404   -0.75987129687498    0.71122239266460
H          -2.29736305915246    0.04187665446867    0.07122591347875
H          -2.41821694747237   -1.60797238078294    0.10104338642658
H          -1.29398206112555   -0.91969623975606    0.99970534505270
N           0.11812062381486    2.25020560492047   -0.52994170179702
H           0.29163857317989    3.24753649266753   -0.50262075065936
H           0.43296228877278    1.84353211728467    0.35382631913007
H          -1.29152658108087    1.65398190576600   -0.78297056302969
H           0.72644353189805    1.84028114919705   -1.23104985968128
