    26
        -50.44909143  Gyration_radius:  2.56473206154 Dipole_moment: 4.378
 S          -1.43390147824979   -0.13240585282697    0.55737505795954
O          -1.02229190950958   -1.40351910188565    1.14660386863801
O          -2.90643103960794    0.14875400440202    0.99956892688206
O          -0.59726717693748    0.96707085437353    0.99134388783681
O          -1.48581350979447   -0.21264225500371   -0.90428311294323
O          -0.13608856072167    1.61257754417663   -3.15503513723991
H          -1.08634249973114    1.64072736203886   -3.01426279664045
O           2.47422763444459   -0.29436238079662   -0.94686901100632
H           3.22721739015053   -0.85984289589590   -1.12407586268027
O           0.40656172440592   -0.71035327346386   -2.39043215136820
H          -0.40768358704658   -0.64918312169073   -1.71229307910518
H           0.25444401709409    0.20323350187183   -2.88747719057617
H           1.25813643885685   -0.58285301427448   -1.83289023110600
O          -2.37508460598584   -0.99321793184565    3.33613642958403
H          -1.72925595264138   -1.30277186535642    2.66478187724733
H          -2.90046084389685   -0.05786234625552    1.95391803774593
H          -2.93589936500459   -1.74481364440939    3.54045690911452
O           0.91048756075653    2.15409301199462   -0.83235590522562
H           0.30536493023050    1.80913756722040   -0.13769309849609
H           1.69853284011150    1.60121267921597   -0.79098018564151
H           0.26719129041209    1.99665699871454   -2.32490887183862
N           1.65685677071860   -0.67353224410604    1.46985345594961
H           1.43330582087107    0.25196653721428    1.82073000394811
H           2.18391378801741   -1.16438881878046    2.18171546425083
H           0.75042439606035   -1.13475967612596    1.36377098109380
H           2.18985594699963   -0.46892164849994    0.02730174361212
