    26
        -50.44909143  Gyration_radius:  2.56473306001 Dipole_moment: 4.379
 S          -1.16536466913264    0.91158423937948   -0.44156238157149
O          -0.85630070984809    0.77889021347071    0.96699788859189
O          -2.55848181318185    1.60465579132534   -0.58951888606221
O          -0.18037708770332    1.72663811302806   -1.14713610567939
O          -1.32541605430084   -0.40001404289032   -1.07377428407476
O          -1.15025096914470   -3.35099869788560    0.14235255965279
H          -1.99683041990132   -2.99201682693550   -0.13700779765323
O           2.24155502770624   -1.40523108620101    0.32401458984089
H           3.14400175548747   -1.59064942625268    0.06059771230166
O          -1.34517765149736    3.96344820662492   -0.48975879932049
H          -2.36527737280963    2.54430169821883   -0.40723616978369
H          -0.70112158551424    3.27395866530142   -0.76075116590456
H          -1.49535579508358    4.51337546459942   -1.26187642165270
O          -0.21677464107434   -1.62986027640610    1.85973152644638
H          -0.53495127306557   -0.73622259479230    1.59910767652653
H          -0.87393590815808   -2.79918015859868    0.92881096379529
H           0.73357128367254   -1.62581393416889    1.70082431942632
O           0.43094639135904   -2.09726446645725   -1.34187004337620
H          -0.25376113142029   -1.28621595115965   -1.34203643955049
H           1.19217897354878   -1.83350213503378   -0.70689082330916
H          -0.15626081181341   -2.78676987316850   -0.80837881976734
N           1.92476307795613    1.14002593337123    0.59628697248773
H           1.30693402315608    1.40461008935625   -0.17432727638951
H           2.68311633133655    1.80959133071628    0.64219257437035
H           1.35488989626427    1.24690526321012    1.42902698840383
H           2.16368113315364   -0.38424556865066    0.43218164225238
