    26
        -50.44909145  Gyration_radius:  2.56472616364 Dipole_moment: 4.379
 S           0.09506474668462    0.97287632913191   -1.19523562853886
O          -0.05813104254602    1.65701921011902   -2.59216106018418
O          -1.20211350488229    1.15499297894053   -0.53967607719766
O           0.38895969969653   -0.43142196045857   -1.39198272035740
O           1.15951806044211    1.66212547792509   -0.47120560557549
O          -3.38288038965832   -0.97379511354439    0.42480370072759
H          -3.56149929572466   -0.40496905200180   -0.32894357374961
O           0.01778156156219   -1.27514303487242    2.34071713924503
H           0.27579212969221   -1.30141497590909    3.26316417948351
O           2.56416896812410    2.06686900206801   -2.62889000210523
H           2.26460610205460    1.93936324624722   -1.70280592429430
H           0.86361161263203    1.75638493294735   -2.89881007158832
H           2.81453927585361    2.98995293743661   -2.70880446912277
O          -1.78182649060948    0.43645688234397    1.73739623110461
H          -1.44845470466322    0.86176007880041    0.82382500706438
H          -2.56800007774392   -0.14508984794272    1.35194543848703
H          -1.05961411921239   -0.23235084991522    2.02618533862961
O          -1.15527519489700   -2.19155864588065   -0.15684798759494
H          -2.63906507151196   -1.57493417791869    0.13389495389620
H          -0.61119687425686   -1.58466359155179   -0.70764753737468
H          -0.69500694911092   -2.26280923044847    0.68664373653791
N           2.04653085798380   -0.61100978357403    0.89310159110431
H           1.99225393421824   -1.20736976573694    0.07391852663091
H           1.81848113994574    0.32372712084250    0.54688331110710
H           0.85658512553674   -1.01905759785449    1.80113458150808
H           3.00517051039610   -0.60594055919300    1.21939694215579
