    26
        -50.44909147  Gyration_radius:  2.56479361722 Dipole_moment: 4.379
 S          -0.55798708883512   -1.34257306329590   -0.51982378303738
O          -0.00705429090106   -0.99596085294076   -1.82698452301126
O          -1.17573662715510   -2.77464703997981   -0.62210617310126
O           0.45340384005544   -1.34256346730890    0.51662592711175
O          -1.67974296125107   -0.47034082558108   -0.16418321029426
O          -2.21689459449041    1.29912312560864    2.44350798962936
H          -2.74100905721209    0.51102282767206    2.27676350380033
O           0.90953506596332    2.47339883015501    0.40078894142610
H           1.20937289334477    3.30966467476028    0.04173284887497
O          -1.57965475861500    1.96873245544415    0.11524394866346
H          -0.58717870531713    2.21286731772343    0.20278480251128
H          -1.61313032317249    0.94425231146863   -0.16047111653339
H          -1.93425549196350    1.86896845630204    1.09966888162439
O           0.25742740151367    0.48620284862269    2.42069674770444
H          -1.28965786040842    0.96959357579416    2.61919545386938
H           0.32484478540200   -0.26684406799016    1.79134191174159
H           0.74326551623658    1.21181925757625    2.01347227463536
O           0.75795936887071   -3.43917400480419   -2.31474254928511
H           0.65431898872213   -2.46309584868735   -2.30125864457180
H          -0.49407578775720   -3.28238508033853   -1.10280384250274
H           0.44292552989479   -3.73403024221661   -3.17204060000176
N           2.10121880671434    0.53386368232771   -0.81195724063885
H           1.36397403939290    0.08228922798479   -1.35796450463788
H           2.32529557697945   -0.13498842515124   -0.08252773771477
H           2.91568953061401    0.64337943065035   -1.40368599531911
H           1.41714622337739    1.73142489621331   -0.10127328094167
