    26
        -50.45671734  Gyration_radius:  2.46106475167 Dipole_moment: 7.548
 S          -0.20372141310302    1.28567216781336    0.50473614936010
O           1.21455225011523    1.02587119157266    0.48041265782524
O          -0.94493125187104    0.00624511858306    0.98051636950062
O          -0.59970203424897    2.29268130899141    1.50391030523670
O          -0.76187692677872    1.62209264230248   -0.80897580278679
O           1.80366845463912   -2.62078332223858    0.18446405790293
H           2.19652590771214   -3.45641023331315    0.43838855036308
O          -0.02621376730644   -0.28339179773859   -2.61449398462602
H          -0.30540206580283    0.52497693938910   -2.15398743734345
O           2.42202332651856   -0.43265161312758   -1.51579141957896
H           2.17345933495581    0.21968229484139   -0.84174808554579
H           2.40300232323632   -1.28684516600793   -1.06157156631931
H           0.94366933820161   -0.33351729183967   -2.46932296336175
O           1.46832460007074   -0.96483471094209    2.23463196773613
H           1.76735206878373   -2.06128004663706    0.99928400760027
H           1.54957379466196   -0.15300809352295    1.69620162070709
H           0.54089368844403   -0.99910969133077    2.48537712488732
O          -0.67998019080480   -1.85648274525522   -0.65155060296561
H          -0.51433707368868   -1.36385666336532   -1.50826914027910
H           0.17386673871245   -2.27250516825473   -0.42326126064101
H          -0.85615383946072   -0.79798151737507    0.29240344519213
N          -2.82837455965105    2.39864136895096    0.44917266792729
H          -2.24718349136554    2.08519569918800   -0.37981423232227
H          -1.91484752376297    2.46275555729165    1.13823813186574
H          -3.29927713629162    3.28383291379738    0.29498892240322
H          -3.47491054190904    1.67501087822671    0.74606054726959
