    26
        -50.44909146  Gyration_radius:  2.56482933856 Dipole_moment: 4.377
 S          -0.81263759339024   -0.19604206442444   -1.29826119499865
O           0.09793408448905   -1.23393186343159   -0.86161713458966
O          -1.24338193403672   -0.48973119384180   -2.77174156590817
O          -2.02015678656638   -0.14219469270670   -0.47888217797964
O          -0.14407580517655    1.10616156818072   -1.35123005136835
O           2.87837812958035    1.94017813289148   -0.72481869606294
H           2.55109871212371    1.94993524894223   -1.62836974579508
O           0.97208732190825    0.58151944017904    2.41289542414790
H           0.82675540919339    0.89604725211479    3.30627165508589
O           0.76997396151863    2.33861425959505    0.56789371616747
H           0.83671813701367    1.66824321984466    1.34145636177838
H           1.71761422988268    2.34114655020259    0.11322112388471
H           0.23350241228938    1.85001017865757   -0.20675233180674
O          -3.20684771941396   -2.01724294486958   -1.84574219751503
H          -1.89752588638632   -1.20872182274462   -2.67829141030324
H          -2.92360781361745   -1.38740377806890   -1.14806247700872
H          -4.08265940504628   -1.73958690608425   -2.12318864728948
O           2.43228256575128   -0.47835322996270    0.13273290268930
H           1.62071445013100   -0.81391761801336   -0.31046846493059
H           2.88135025777944    0.97811064804560   -0.45340262939993
H           2.19556350416644   -0.36295658983449    1.05958590220584
N          -0.81104595420510   -1.18415927730463    1.81637442722844
H           0.24916280282048   -0.12639734887183    2.22220125895200
H          -1.39490876254328   -0.72946825563737    1.11072260835003
H          -0.30887540481241   -1.90414296372822    1.30735844119923
H          -1.41741292345358   -1.63571591912886    2.49011491326819
