    26
        -50.45334062  Gyration_radius:  2.59299450193 Dipole_moment: 3.796
 S          -1.01010452325244    0.31295235573343    1.04508926050516
O           0.25922348154200    0.90566711476136    1.35222358907829
O          -1.73757627004408    0.98798731022094   -0.00781913995789
O          -0.85958214679356   -1.16246304200535    0.67935190243490
O          -1.87463723018589    0.25818492828657    2.31079702876608
O           2.80310159388014   -2.25868253470265    0.01806553002066
H           3.63588018181321   -2.47635501133510   -0.40292381264710
O           1.63353830946831    0.93210012776863   -1.93915142071484
H           1.76258735789373    1.16039449671384   -2.86087999056303
O           2.81936218137846    0.34504623991151    0.54602748377451
H           2.00118529634119    0.54197226109683    1.02969363315378
H           2.89808421493196   -1.33837997901200    0.36440186733745
H           2.65235131531240    0.65031921484633   -0.35720163974926
O           0.62371919242487   -1.50425221463549   -1.28681861672226
H          -0.25032173512597   -1.32608355305190   -0.17726240087346
H           0.94634864554389   -0.62242899950600   -1.57014670360225
H           1.40021692700144   -1.94114634512978   -0.85620344968251
O           0.12264613651150    2.73894038061814   -0.77178093247125
H           0.52963768239921    2.79709539791923    0.09859474575224
H           1.06248634753980    1.64798838178893   -1.55165300232760
H          -0.68477978154707    2.20985396230090   -0.62231081721595
N          -3.86934751479927   -0.62453284413215    0.96606957355173
H          -3.51941227923127   -0.06127459933866    0.19638160513287
H          -3.72183295135633   -1.59995067384567    0.74275518349201
H          -2.76301372860485   -0.11558838966434    1.96869920391987
H          -4.85976067305282   -0.45736399561295    1.08600129960508
