    26
        -50.44909144  Gyration_radius:  2.56468624184 Dipole_moment: 4.379
 S           0.40405992498624   -0.82358469507410    1.24195607586527
O           1.76440234336428   -0.84230385845843    0.71140364384806
O           0.42043321554052   -1.53433504294152    2.63389577967273
O          -0.09771614579684    0.52429692506109    1.41098826750007
O          -0.50245325308248   -1.62591229204497    0.41726631769807
O          -3.29699518601218   -0.89371656881521   -0.95006255920625
H          -3.26651008162210   -1.49762685065914   -0.20309156881432
O          -0.29542293286281    1.17814777119009   -2.37277185532412
H           0.04502573184137    1.36359386068301   -3.24906719183672
O          -2.12532228406520    1.27750172625065   -0.11543371616929
H          -1.64870151807843    1.60314435978443   -0.88692561168172
H          -3.01991295776406   -0.00527325917064   -0.58516667300740
H          -1.43476509609698    1.01972785422932    0.53602612440876
O          -1.02619599210829   -1.23437850124045   -1.95124262290953
H          -0.71676802235809   -0.28012662407227   -2.16567438548975
H          -0.66044582383200   -1.45698182016172   -0.97999738883611
H          -2.04617647875176   -1.15359221153395   -1.71046669196335
O           2.84210811218290   -0.53641430755464    3.06460276806540
H           2.65968614069026   -0.55109621681078    2.10016875891362
H           1.20546414568374   -1.15488986404415    3.07351956101857
H           3.51605981728677   -1.20093813288306    3.22381568797763
N           1.54745026271954    1.60632583654772   -0.61981853063323
H           0.46569286002670    1.37300274444610   -1.70712777353071
H           2.40845173748163    2.10613989912477   -0.80518972287035
H           1.07475301707441    2.06246521262808    0.15357523310859
H           1.78379845355298    0.67682405552071   -0.26518191580222
