    26
        -50.45731620  Gyration_radius:  2.44443577949 Dipole_moment: 6.864
 S          -1.73899814101680   -0.23409430188242    0.96428181866894
O          -0.72922276478496    0.82005201393598    0.68840485048176
O          -1.64521449685099   -0.64071909704988    2.34893613194713
O          -3.12293124196352    0.44105679399226    0.72204914265117
O          -1.59857421862188   -1.34015218965900    0.03344360963970
O           0.25871722644381    0.60366956984557   -2.78441493262457
H           0.54278499206701    0.94915125052209   -3.63132149340637
O           2.45625281982831   -0.84533411215296    0.74484363121910
H           3.11109428630430   -1.54303917569536    0.79293417535015
O          -2.43007284369193    0.34256893947840   -1.85877393002865
H          -1.59139067087317    0.63922416212949   -2.24474727930676
H          -2.21900743244048   -0.52047116568340   -1.46939744634175
H          -3.10098948428236    0.64039445532640   -0.23594379175281
O           0.77748685007444   -1.57537399414173   -1.07607089423398
H           1.80548040883952   -1.13957380215765    0.03279967957534
H          -0.10453723814712   -1.61219420229570   -0.64655305373588
H           0.66258650913489   -0.94643084408589   -1.80632793396955
O           1.45723008988369    1.62961176556855   -0.63769052288848
H           2.05862947268525    0.96318541867494   -0.28664467293084
H           0.73818267838963    1.11209283780150   -2.08921717619108
H           0.60733775400451    1.47781611836285   -0.18395034061706
N           0.80500248224315    0.15581387812473    2.57334261316997
H           0.01149761214589   -0.45361052019862    2.86897249950195
H           1.55104165066299   -0.36041480879486    2.04407237501752
H           0.26539142644146    0.70639731600494    1.81332226414364
H           1.17222227352359    0.73037369403059    3.32365065666362
