    26
        -50.45731619  Gyration_radius:  2.44445606224 Dipole_moment: 6.860
 S           0.19475707734832   -0.78088961261630    1.83218673318313
O          -0.85967200360025   -0.96866578639927    2.96471766997023
O           1.51293694060709   -0.69288119471986    2.42103854931072
O           0.06113137359404   -1.88127908267443    0.89364422642221
O          -0.14470778748158    0.51134878728328    1.18334930236575
O          -2.37347024586253   -0.13739592893063   -1.59351564350779
H          -3.09520404839238    0.05616199503700   -2.19263354334374
O           1.94841004400910    0.70808515735135   -1.73450337934887
H           2.58159469136455    0.46388996961234   -2.41087938289386
O          -2.56246364538331   -1.41657480386547    0.95197101930261
H          -1.75506409463120   -1.92069184066135    0.76531354495851
H          -1.69764555089817   -1.05541093747172    2.46649898707663
H          -2.68459680208735   -0.86580759460530    0.16318230957471
O           0.22873984963240   -1.21607739913359   -1.64802368681005
H           0.24081880038428   -1.56097327145954   -0.72892708267342
H          -0.69403525754124   -0.95268333337252   -1.79310998358874
H           1.28233453053656   -0.04869991855728   -1.70767390676666
O          -0.73104958801496    1.88644839818533   -1.04306807328054
H          -0.63056297281836    1.46909847955206   -0.16725109037265
H           0.10174937707603    1.72648563104695   -1.50113568704335
H          -1.89214875987704    0.70857636321324   -1.43753399414102
N           2.24864948362890    1.22853677100536    0.85610240273190
H           2.46609582195740    0.41462659113154    1.47241870405525
H           2.37561243638680    1.02157878741927   -0.16584603055671
H           1.17711349163842    1.21580768704830    1.00434004669736
H           2.70067682841663    2.08738608658753    1.14933797867553
