    26
        -50.45531366  Gyration_radius:  2.49871882739 Dipole_moment: 3.248
 S          -0.35590220952341    1.39563222817873    0.47131951517952
O          -0.21346830174552    2.79134760175125    0.78506549147994
O          -1.87317848674151    0.98220259367086    0.70888378394618
O          -0.10022631913830    1.11831467288008   -0.95250294324831
O           0.40487099688304    0.49445659724065    1.31226804530878
O          -1.95684865113882   -1.76189828603645    0.32948719609432
H          -2.16494517011807   -0.85973664632509    0.61854872561803
O           1.81067179687803   -2.19044056430949   -0.84583707641836
H           2.36370332783339   -2.62953010169136   -1.49346425275097
O          -2.58422845075600    3.35329911290090   -0.10936407086484
H          -3.04576694207598    3.93714040383364    0.49710517922661
H          -1.62975235340133    3.41904013927178    0.11415020749493
H          -2.36555767386414    1.75727320226757    0.35599215504213
O           0.29089056831995   -2.16850041656914    1.60969428696554
H           0.40118461417905   -1.20214621056534    1.69452969438840
H          -1.23752000891510   -2.07763624406312    0.93936802280256
H           0.93706147227365   -2.44500244468381    0.94862148138915
O          -0.46336005302377   -1.22647545554106   -1.60034773615405
H          -0.31194366911434   -0.18235644581369   -1.38289898448532
H           0.41121068631915   -1.67947417256950   -1.35613565152025
H          -1.17147898578643   -1.53139738324147   -0.87019003551105
N           2.65767380348328    0.22959786290462   -0.35767850697598
H           2.40221157920236    0.83945823293507   -1.12579320592931
H           2.23626567767780   -1.28997537237393   -0.64799335998509
H           3.57472383033588    0.50315019729512   -0.02761592925673
H           1.98370892194771    0.42365688864445    0.38478797816813
