    26
        -50.45531354  Gyration_radius:  2.49888736113 Dipole_moment: 3.250
 S           0.71263908353070   -1.22757897440354   -0.53042000277306
O          -0.00835331568011   -1.26375024858777    0.72535334836197
O           0.91272186900519   -2.50562802848341   -1.15762312443363
O           0.10773111664242   -0.24758041537945   -1.44868361005369
O           2.13673941425150   -0.62475571943266   -0.15887513848920
O          -2.33912140208782    1.63270170354397    0.81031092445765
H          -3.09322601134331    2.18934111933679    0.61158389180553
O           1.60399215390985    1.68968792878439    1.26939234472987
H           2.03917022548607    0.89833768763106    0.91558125332701
O          -0.14007441382560    2.00457883035745   -0.49163583258190
H          -0.03566804007191    1.04648941078187   -0.97328445248558
H          -1.01175521667028    1.95014890258500    0.02516355846400
H           0.63663732696939    2.00358447616130    0.23210180126962
O           3.09749360594907   -1.72214483757744   -2.31963441942768
H           3.78279714096178   -2.38947091772555   -2.23771077431855
H           2.24475546355720   -2.17653111425821   -2.14161385001783
H           2.68111205576627   -0.85809827437407   -0.94435581233575
O          -0.34902167781070    0.59515219772576    2.62819240624911
H          -1.16369332268623    1.01077170755674    2.32073592300868
H          -0.24976816741015   -0.21385410792272    2.09080802962680
H           0.98693160138353    1.36072636169046    1.97643817061795
N          -2.57695902489257   -0.72001364025417   -0.29414395223415
H          -2.52982615167418    0.71603769562456    0.41728310695280
H          -3.32938106117483   -1.38456093616336   -0.16388732876766
H          -2.38329667162994   -0.65104549208491   -1.28654118697433
H          -1.73257657044606   -1.11254532512075    0.12546474602584
