    26
        -50.45531363  Gyration_radius:  2.49880419959 Dipole_moment: 3.250
 S          -0.16495595008924    0.37476995620865    1.45920897959288
O          -1.11049233034398   -0.87606511829893    1.72559707393627
O           1.07168197082937   -0.19898294028115    0.96966184082915
O          -0.83615018120248    1.14522558105817    0.39834036549422
O          -0.05029757229249    1.12276927250656    2.68155298985006
O          -1.03609159506726   -2.36512894696392   -0.61025068731027
H          -1.13539250071274   -2.10101482649572    0.31776592850764
O           1.14392424476194    0.18785272691248   -2.72936796242778
H           1.21488614140233    0.59964400644292   -3.59160625503645
O           1.54207780343575   -2.03443252801757   -0.92858397345095
H           1.54626037994233   -1.43615090883087   -0.15710573044274
H          -0.05859518775455   -2.48261984059301   -0.75043816290934
H           1.65253948744162   -1.46345462999019   -1.69850727558068
O          -1.19772094860751   -0.11454134527251   -1.68291515847955
H          -1.23126822364326   -1.10961049532102   -1.31409527597148
H          -1.08931734124873    0.48019464959267   -0.79116564947537
H          -0.31484033682114   -0.02218804444888   -2.17457476063971
O          -2.49842914971440    0.59923116255252    3.36678678071269
H          -2.54509291929700    0.34900148759061    4.29247449138434
H          -1.63992661743111    1.06176973960880    3.24711215871382
H          -1.81628335543468   -0.49523808753916    2.29533552708355
N           1.76254416850879    1.86037998547102   -0.82352633541078
H           1.46842644514726    0.86447060718386   -2.04528155250331
H           2.63221083145939    2.36600921361029   -0.71066485026780
H           0.99753029078860    2.50935150002439   -0.67962050646593
H           1.69277246597193    1.17875784328911   -0.06613198972724
