    26
        -50.45531365  Gyration_radius:  2.49878599281 Dipole_moment: 3.250
 S          -1.06307511786982   -0.17628185917975    1.06561693901070
O          -0.92116686697730    1.09777969109136    0.34021711433550
O          -2.36194036658878   -0.31596214664365    1.66573214637118
O          -0.64580525263093   -1.28672286197976    0.23438745130691
O           0.02056616610091   -0.11514823077059    2.22814441612381
O           1.07280922956728    0.09103857306245   -2.76294881128067
H           1.20422267723684    0.52600130001220   -3.60650795708554
O           2.47671111821234   -0.11461285558685    0.94467400791203
H           1.77882280299282   -0.21865785821928    1.61017654368564
O           1.32114926557335    1.47567047661190   -0.59728155422649
H           1.29836033393177    0.97567013867980   -1.48006706582936
H           0.32847759027653    1.37805009572733   -0.19043110993159
H           1.91663694219371    0.89270360679724    0.06060393400993
O          -1.71208549523258    1.16841640443459    3.69330033830262
H          -2.01290752892681    0.77128521442210    4.51397641627707
H          -0.42055433461294    0.44667064401780    2.90456344203261
H          -2.22843181786280    0.74335187999233    2.97356114088460
O           1.74437356540467   -1.92163919055196   -0.80356341002229
H           0.84138827761653   -1.89311004289421   -0.43351103384272
H           1.68835340181074   -1.47216163356995   -1.65551313538852
H           2.40286816829210   -0.91162044565886    0.35455810661060
N          -1.46479777016482   -0.23284265388650   -2.24592263157821
H           0.07556003957686   -0.07054227793010   -2.66006402120549
H          -1.86773853651886    0.65133468787262   -1.95777719454157
H          -2.14757948202349   -0.72312166833825   -2.81000017782641
H          -1.32421699937983   -0.76554898772393   -1.38592389424545
