    26
        -50.45531361  Gyration_radius:  2.49878435727 Dipole_moment: 3.251
 S          -0.59549499894435    0.16404336234975   -1.38389173605078
O           0.79130945634558   -0.18960470673347   -2.07764468154713
O          -0.31396040151339    1.33538790736661   -0.53640759527793
O          -1.55377202932329    0.45901470138332   -2.41416780488317
O          -0.90307404780947   -0.99373229238485   -0.56963685258010
O           2.46221897818854   -0.98862827239128   -0.01642580533993
H           2.06249367436489   -0.86875616601701   -0.89203737202453
O          -0.04265136473484   -0.19126033738822    2.95887731840188
H          -0.09165748500560    0.19956701837903    3.83231018623173
O           0.58953822304170   -2.37541130373877    1.17837698626277
H          -0.05232082735748   -2.05086075507530    0.51819278363482
H           1.91910602515577   -1.69192155508742    0.43004675889471
H           0.37928790492744   -1.90631950159543    1.99491748459548
O           0.24228291648883    1.56150803147206   -3.92927341079433
H           0.84006603079716    0.46688355598754   -2.80868125634125
H           0.14788658807923    1.26475090113994   -4.83746281774165
H          -0.61015422972258    1.36382870128427   -3.48254378071830
O           1.42104779382364    0.95150428013023    1.16418168640551
H           0.67292114680788    1.18712704843055    0.42565830342567
H           0.91399319943439    0.51922309151683    1.92961457932286
H           1.98606147155405    0.17818768185501    0.70591083730764
N          -2.17054048859882    0.35875221925725    1.55116583237377
H          -3.13241052090821    0.15037279977677    1.78806718488455
H          -1.91089230364366   -0.21729833127391    0.74874969361877
H          -2.12467156880094    1.31771870433555    1.22653855096545
H          -0.92661311265758   -0.00407679299841    2.49556494695320
