    26
        -50.47393300  Gyration_radius:  2.4034049179 Dipole_moment: 4.924
 S          -1.50035714784336   -0.13244089538384   -0.71988325245116
O          -0.44190926136361    0.77410337588926   -1.20133913129281
O          -1.45707836859717   -0.21352610223993    0.73945033658040
O          -2.85659416416810    0.50902725343745   -1.12294687036488
O          -1.42354819574176   -1.42893947690681   -1.34890435963939
O           0.00221716689240    1.92583680867437    1.05164110251421
H          -0.62116047053439    1.28115405001076    1.43300370284095
H          -0.02199845665964    1.64783681407171    0.10080495774824
O           1.95665045298814   -0.36188176166480   -1.30795991593212
H           1.10295506975264    0.10057395889373   -1.45713120331692
H           1.72303872884594   -1.30660912201737   -1.29963443116829
O           0.72331468406672   -2.76762189301867   -0.85493284844080
H          -0.12639256089192   -2.29664963700634   -1.07379366592784
H           0.66744695240674   -3.62042438918767   -1.28871081483029
O          -2.23244817253776    2.96620752469406   -0.30704855846438
H          -2.78365273729821    1.42576488295408   -0.78430600765941
H          -1.52934324061300    2.87696336148052    0.35737046590770
H          -1.80572974383406    3.27694507399884   -1.10957810349903
O           0.41569744544654   -1.80792015527386    1.69473243123092
H           1.46770772839899   -0.66599432870931    1.58338888241311
H          -0.39705050566516   -1.30659379243054    1.45367442687849
H           0.58256292771987   -2.37994115494118    0.92543858198627
N           2.03966691193639    0.18151078929161    1.24818057777283
H           2.19008381432210    0.00860086328942    0.20081341134892
H           2.90908780670344    0.29464311380653    1.75570510434470
H           1.41683332625907    1.01937482829659    1.33196519141458
