    26
        -50.45334079  Gyration_radius:  2.59272116624 Dipole_moment: 3.806
 S           1.21229546446321    0.61644950523727    0.59915278743915
O           0.48079215453824    1.86285208610988    0.52708884665160
O           0.63107869767333   -0.35271589132501    1.48229419904745
O           1.37726955879244    0.05380070520020   -0.81118711609470
O           2.66015869233445    0.89634861808810    1.02077693236386
O          -2.67056548329549   -0.36494194793203    0.13179584501295
H          -3.54926892403091   -0.06447081854208   -0.10489657254908
O          -0.53814482664963   -3.26653079532990   -1.41851447008895
H          -1.20096277694248   -3.91432568013282   -1.66170237023487
O          -1.65473214265565    1.20401523116553    1.98011631227070
H          -2.34131407285037    0.25941825533469    0.83217202406098
H          -1.17828917274356    0.57301981462505    2.52914155851732
H          -0.95486085004143    1.64164352317082    1.45777724718731
O          -1.05467891054467   -2.47408107848515    1.06402301072662
H          -0.34209866508859   -1.86824925761246    1.32365863068508
H          -1.80324740525483   -1.89860487758698    0.85112147698086
H          -0.63647049557161   -3.11868603415718   -0.44669647355020
O          -0.78806841797326   -0.65702405143256   -1.80460228256229
H          -1.48624718446527   -0.49791840032465   -1.13424785591303
H           0.45678604331277   -0.23004284818622   -1.26356636117456
H          -0.66604280501545   -1.63879833303046   -1.82721576332949
N           2.86694452613823    2.74190412479047   -0.74483826035652
H           1.88020847539773    2.92041122599780   -0.58088813066844
H           3.37883730116994    3.61375599544662   -0.71558064461083
H           2.95086938286373    1.63553715197681    0.37646912993157
H           2.96975183642709    2.32723378695476   -1.66165173973538
