    26
        -50.45531359  Gyration_radius:  2.49886885228 Dipole_moment: 3.251
 S           0.87600852931897    1.02513425256879    0.69079013495287
O           1.43665225723015    0.06366402682973   -0.23624973435745
O          -0.31150989692243    0.46867157802187    1.36143317771343
O           1.81090876801125    1.59014397275055    1.62550110404765
O           0.32149952573125    2.19637048617440   -0.23130303324765
O          -1.24746407603513    0.94458725530545   -2.14253442898428
H          -0.68494961057762    1.58512512867761   -1.67992861760899
O          -0.99790237685569   -2.71918736022277   -0.63484274214212
H          -1.51586530289961   -3.49977290868731   -0.43351807889569
O           0.45749643975534    3.79623474623723    1.82271334065572
H           1.02233891882353    3.02334277459550    2.04373078231321
H           1.04186149018110    4.55698136590944    1.78341328150816
H           0.19994588578608    2.93460931036630    0.40734337836961
O          -2.02332216766571   -0.39306704771765   -0.18014510096892
H          -1.82897256975704    0.19059795738286   -1.04532648297894
H          -1.70294230469682   -1.33238421473190   -0.39186806719815
H          -1.32240309440788   -0.01080908859609    0.54324772042236
O           0.44450505572366   -1.02618446444025   -2.47707118402999
H          -0.62665255666700    0.25723805662370   -2.50442596233995
H           0.98759536930137   -0.66343862166991   -1.75143284426232
H           0.02236238338367   -1.81426355526871   -2.11411667337449
N           0.79760930226137   -2.27003131578278    1.20520873199865
H           0.35164900615945   -1.87550408330810    2.02533173756817
H           1.52905147045453   -2.89811580333906    1.51383323766131
H          -0.27549308813647   -2.64643033748645    0.07523927067260
H           1.23799264250110   -1.48351209016600    0.72497704250195
