    26
        -50.45531361  Gyration_radius:  2.49879682621 Dipole_moment: 3.250
 S           0.06972321744803   -0.60893867089776    1.38600809442848
O          -1.20514853063456   -0.54122998387829    0.65137536494357
O           1.18435785416409   -0.71178888017751    0.46673009508341
O           0.23647223342679    0.82137936553109    2.06123917299083
O           0.04246928344667   -1.59971692884126    2.42736160809039
O          -0.07493298678054   -0.02128683335069   -2.96437935317255
H          -0.52918384987989   -0.14199125816450   -3.79932804192986
O           0.53906924378673    2.59752160509552   -0.04435675408003
H           0.57153154190416    2.18682673419514    0.83378027803202
O          -1.21497382948478   -0.01877015986608    4.05721628092618
H          -0.82450481669350   -0.05565466858382    4.93352947948496
H          -0.34893391746778    0.75716731602379    2.84925771258254
H          -0.91255941471723   -0.82510375866788    3.58434990645339
O           2.11776016939485    0.99231674542490   -1.38180691246576
H           1.28295651185905    2.18444343840884   -0.55908713619795
H           1.97229898351400    0.30644660246054   -0.70241157484784
H           1.62017014271202    0.69938279286682   -2.15483159802030
O          -1.28809405031380    1.22675896581911   -1.05649967607872
H          -0.58725826511005    1.92074415653811   -0.66354816823195
H          -0.84526224836594    0.80016624744267   -1.86380083112435
H          -1.32051155024398    0.45207666880092   -0.30846918593069
N          -0.11236410995166   -2.20640233936267   -1.53762182093329
H          -1.03086069035514   -2.32811702429976   -1.12692082694824
H           0.23882927720254   -3.11782325000517   -1.80357918743974
H          -0.06111721799382   -0.92239023217542   -2.49644262550879
H           0.48006704912897   -1.84601665035120   -0.78776430011225
