    26
        -50.45334088  Gyration_radius:  2.59311603846 Dipole_moment: 3.809
 S           0.71265604004195    0.95150062477929    0.89063604635134
O           1.74011866845362    1.58837981169704    1.83491725250254
O           1.59128723864548    0.15114789007158   -0.06861164796111
O          -0.16129258885372    0.09278338157876    1.63614013924422
O           0.02915869882091    1.98963826335683    0.14978794307348
O          -2.35501957037254   -0.84292240971200   -1.01553493787748
H          -3.01915416135012   -0.77440014308464   -1.70304620540409
O           0.45897394651796   -3.53182013273794   -0.53788957405122
H           0.04939557768852   -4.33197482606117   -0.86974239103667
O          -2.49469341373253    1.24419365644131    0.57658132397670
H          -2.30944590248150    0.84605597166616    1.43317832931624
H          -1.66028682812559    1.69155421802258    0.33624440260437
H          -2.45827971290147   -0.03432216498210   -0.44612660528769
O          -1.27243879265238   -2.35577281141652    1.09844385915712
H          -0.82418137699930   -1.58240238896506    1.47672397700974
H          -1.85497002000004   -1.99441615499818    0.41513250222457
H          -0.11776304393824   -3.20711632606015    0.19548663177262
O           0.25383352976410   -1.16091401089416   -1.70291729845222
H           1.03653921442587   -0.39524517468753   -0.79390899152500
H           0.43827626987387   -2.08246369491364   -1.39290780406211
H          -0.69340540961953   -1.00440177795108   -1.50213443751040
N           2.66490706180850    3.03350525300385   -0.06867987132047
H           3.23663474092752    2.46730374796564   -0.68157617045364
H           2.25922491712987    2.22033447660708    1.22083817906403
H           3.03322708121621    3.97532166806897   -0.04759130492277
H           1.71669782569765    3.04645304318498   -0.43344333643403
