    26
        -50.45531342  Gyration_radius:  2.49901082799 Dipole_moment: 3.251
 S           1.35802702022126   -0.55981060940716    0.36529451937053
O           0.79862987324593   -2.04829124813750    0.39389539673375
O           0.55057621756752    0.17378339163436    1.35491488091848
O           2.75058848014379   -0.59342883801858    0.72071218143190
O           1.07566023644389   -0.08873005049019   -0.97501744606450
O          -1.79500134411188   -1.86887879102652   -0.56695889561832
H          -0.91690904615619   -2.20190505591408   -0.32434078408077
O          -1.93254713006448    2.09176086023555   -0.83029009954087
H          -2.48760495168451    2.85128369429269   -0.64826555475855
O          -1.86380456584332    0.16273600872713    0.88550650880989
H          -1.98229401514673    0.92378921075511    0.22479282543574
H          -1.95668510947172   -0.73527875612591    0.32698174298539
H          -0.82153773883113    0.18238804288410    1.15687912065095
O           2.39707313937064   -2.54731577798120    2.39233393631284
H           1.23313916696606   -2.42726715036424    1.19095285942264
H           3.08195535026021   -3.21174160700288    2.28682829972270
H           2.73795182013434   -1.72774056382747    1.97103315639672
O          -1.15978683579631   -0.16792904215813   -2.45479625709581
H          -0.25103289595292   -0.13854414749212   -2.09937818250896
H          -1.66855666756225   -1.38465678892041   -1.42616843816764
H          -1.55972177050465    0.67560690984146   -2.21093961639483
N           0.57637021792466    2.60640476919773   -0.32646201172540
H          -0.97001019894268    2.38172245499737   -0.68725332821117
H           1.14345563846783    3.34418498944708   -0.72508067447232
H           0.72966636122938    2.59475972490081    0.67535674825368
H           0.93239874807997    1.71309835993732   -0.67053088781370
