    26
        -50.45531360  Gyration_radius:  2.49885636365 Dipole_moment: 3.251
 S           0.83168256879025    0.52046232745859    1.15492553846595
O           1.44051104464652    0.58982495365510    2.45548559351663
O          -0.60837212329079    0.67572607263262    1.13963127949715
O           1.37614300817933    1.73400426345915    0.28289533700247
O           1.23133606235133   -0.69144530469836    0.41923830375316
O          -0.06230987313883    1.64046637252992   -2.08408281965403
H           0.46946964573541    1.94982185559208   -1.33424216804448
O          -2.00921310962598   -1.73435632531037   -1.32251931268706
H          -2.28450694225124   -2.56333530310229   -1.71633579311908
O           3.67468930846691    1.49034736576121    1.48854305347141
H           2.32840437033800    1.76523239163979    0.52775678941939
H           4.00270099182281    2.22108265795403    2.01783472735267
H           3.02372596551875    1.01250685672102    2.04812728192468
O          -2.32358842498401    1.10198874361904   -0.87775810075550
H          -2.54809683627698    0.19265779376452   -1.10948764210132
H          -1.84121460400394    1.04412019335880   -0.03095584508827
H          -1.00112838666674    1.62562434081350   -1.75666393841049
O           0.34136787690229   -0.81588277886439   -1.87025091953618
H          -0.58972878171484   -1.19923781175397   -1.74423432656313
H           0.21247482618018    0.21394533521807   -2.09348860743519
H           0.77970401806563   -0.80633472494347   -0.88611162581955
N          -1.28555019809452   -2.05795609937585    1.16398238165759
H          -1.81515186929938   -1.91686097088170   -0.34249815495352
H          -0.36733892076671   -2.48568084726099    1.19733248050280
H          -1.13517964614326   -1.06578201528337    1.35406958436235
H          -1.84082998077233   -2.44093935267428    1.91880688325156
