    26
        -50.45531365  Gyration_radius:  2.49882105509 Dipole_moment: 3.250
 S           1.01195487580455   -1.12011711082814   -0.13596688646318
O           0.58801294211961   -0.35144007246607   -1.28817698949943
O           2.27950970616201   -1.78378380650942   -0.27619964795112
O           0.94656836880319   -0.30186985582323    1.08708615350310
O          -0.11485708560503   -2.22789348580341    0.04476100314660
O          -0.95627374892039    2.80617707046002   -0.06998422779593
H          -1.03726921363446    3.68306607301673    0.30760647455148
O          -2.51537127480400   -0.84281088709666    0.03755140191772
H          -1.84943556163444   -1.54347337471561   -0.04238743678844
O           1.60315764932893   -3.67295347758781    1.37024991738106
H           0.31883404617949   -2.88173978301250    0.63817100224012
H           1.85582319778201   -4.53155574017562    1.02286332435453
H           2.13229532723388   -3.00759888033693    0.87770594183571
O          -1.24032088930575    0.75530105849850    1.47355974586908
H          -1.88314555191980    0.08454696662493    0.95959942835959
H          -0.26917117540102    0.30030864004081    1.37128271580278
H          -1.20046524227120    1.59920298678714    0.91136847055922
O          -1.77999822649532    0.74137425159727   -1.91359948797095
H          -2.44705848719742   -0.31357724981764   -0.80162734000258
H          -1.67298788146007    1.61949606964821   -1.52829871427412
H          -0.89228085212428    0.33574026045951   -1.88941404110944
N           1.54454669668552    2.15910047798910   -0.44237922060574
H           0.02932263723268    2.64939267075331   -0.25767479035345
H           2.23083758570177    2.65784130970339   -0.99465082807914
H           1.96796230852110    1.91645839865298    0.44587544161643
H           1.34980980921402    1.27080748993515   -0.90732142025614
