    26
        -50.45334079  Gyration_radius:  2.59278242542 Dipole_moment: 3.803
 S           0.34027903560488    1.44690072816367    0.02366914109051
O           0.41692228428704    2.92952167390043    0.40894418602927
O          -0.85393248961472    1.20587614868266   -0.73307260136045
O           1.55783007395996    1.06100639067172   -0.65625158545268
O           0.28679654248028    0.75071272091455    1.38208019625094
O          -2.57185874385019   -1.85453355916008    1.70806149939436
H          -3.07867821166638   -2.66769044109964    1.71189871076938
O          -0.30928821386599   -2.24181921220151   -1.47086949078815
H           0.08067469519975   -3.03306501881070   -1.84552677876333
O          -2.65595582575711   -0.86066644040069   -0.75422918319090
H          -2.76057434382806   -1.41277310820242    0.84481611740288
H          -2.19600884277372   -0.00618539989699   -0.73253724621400
H          -2.02065937958187   -1.47357747646717   -1.15122052119156
O           0.01932863615802   -1.71215133269068    1.17314815395783
H          -0.03878151566844   -1.92221449031454    0.21680293976788
H           0.20036331242542   -0.30768144651033    1.31206067697558
H          -0.89928794684799   -1.82749955190632    1.52265916375377
O           0.50670005873758   -0.12550970617063   -2.79967931263023
H           0.02950104099704   -1.48025011492191   -2.01304813117188
H          -0.28719981018188    0.41885348044764   -2.80292116715772
H           1.07538178973595    0.28635399461777   -2.12064635484260
N           2.74559092685341    2.59290092261305    1.42442143156917
H           2.88780128610773    1.88995591599274    0.70469559235157
H           1.32205205922314    3.00043460293680    0.87948744608156
H           2.66260081100566    2.12506704042834    2.31741791549639
H           3.54040275083933    3.21803367940229    1.44983921187666
