    26
        -50.45531358  Gyration_radius:  2.49888858234 Dipole_moment: 3.252
 S           0.26545025368981   -0.98044961546012    1.12443294516504
O          -0.97508894343790   -1.01592207472547    0.37739655347302
O           1.36450371029360   -0.47693706473668    0.28286976295827
O           0.03868133323268    0.14295083918203    2.22715723006428
O           0.61236118906451   -2.20539188659403    1.79225404395911
O          -0.87591642781212    2.35971590621878    0.83756169866233
H          -0.69297149874709    1.71696207813313    1.54052093979310
O          -0.46525736966434    0.83884893769392   -2.80603309535569
H          -0.15973831834439    1.04492640447477   -3.69051544405086
O           1.92765897083123   -0.95613580875085    3.64866384617317
H           1.65238265250120   -1.63444933306801    2.99343361868407
H           0.76125723121479   -0.03699981104465    2.86999780232388
H           1.71237488147251   -1.31180244196062    4.51403365015623
O          -2.44742165897209    0.94547777807433   -0.70811845366211
H          -2.06446081572276    0.98005107983837   -1.59307721946624
H          -2.09141809783014    0.13256357053101   -0.30127874195532
H          -1.64028876049903    1.98330973618687    0.32481256678583
O           0.90070742641105    1.68910950608993   -0.78606645654863
H           1.17091852314971    0.75248739573286   -0.32719141421666
H           0.37826476031259    1.43752474190381   -1.61884262800966
H           0.19793947781991    2.10338159859506   -0.10667331049648
N           0.11931200548508   -1.61781075051926   -2.14695537035413
H          -0.15068738503139   -2.46341954411580   -2.63352233977780
H          -0.36906605676506   -1.59946688222247   -1.25014593520056
H           1.10508008948036   -1.68317375664222   -1.92096687986224
H          -0.27457715208923   -0.14535059272134   -2.64374735922150
