    26
        -50.47393294  Gyration_radius:  2.40340472412 Dipole_moment: 4.921
 S           1.37600508819075   -0.92469727658347   -0.19393470907879
O           0.82888446665092   -2.21401035716056   -0.54179416936135
O           1.03562215525375   -0.52054381431724    1.16952616939094
O           2.92319040098920   -1.02581633656616   -0.29040168049943
O           0.95828102126616    0.12235889993127   -1.14416209425915
O           0.68771245430001    1.99800965454082    0.59064012498564
H           0.86517460931461    1.31328626062501    1.26123846142627
H           0.75470198467258    1.45285416893803   -0.23393834606284
O          -1.62971804733833    0.04021151612095   -1.73511926867356
H          -1.86026192972567   -0.86639068512432   -1.46637631194638
H          -0.64790165090019    0.06106665535048   -1.71085183162782
O          -1.74216216976286   -2.38191321641989   -0.45738407993714
H          -0.74731090255505   -2.37421983931121   -0.50000671507229
H          -2.00510821841785   -3.27675442086039   -0.67784424983073
O          -1.49753152747759   -0.87321117182540    1.81945251407669
H          -0.51697447674921   -0.83134188277942    1.73758645475824
H          -1.87063936253895    0.49123099580510    1.16856730883499
H          -1.76506651054186   -1.54460367228246    1.16798938790987
O           3.35731517283246    1.60064895518586   -0.20627057984965
H           2.58253979151166    2.00536175623160    0.21765551163338
H           3.21755953821765   -0.09776470060506   -0.17947202633430
H           3.27909026867145    1.78904259213766   -1.14496059247766
N          -1.91934468974606    1.34285980868886    0.51297675281606
H          -1.93808184922737    0.92352788457127   -0.47381131760688
H          -1.00923243167400    1.85207272281198    0.60970623209041
H          -2.71674316529791    1.93873550287384    0.70098907469021
