    26
        -50.45334082  Gyration_radius:  2.59271700625 Dipole_moment: 3.807
 S           0.08028864364030    1.20634792037462    0.86368118763733
O           1.38155640720389    0.42699183398019    0.68463144255903
O           0.42342774066926    2.17659330200583    2.00104179335997
O          -0.19087194571112    1.95514659046620   -0.34443474229912
O          -0.99155458602165    0.34486790845855    1.27103328389293
O          -1.42414027804005   -1.42371221026793   -1.79620413715155
H          -1.63921290082642   -1.59882254666189   -2.71356755697658
O           0.91449545842158   -3.42581050083216    0.63131777124706
H           0.79179214098264   -4.33301766898084    0.34841606595370
O          -2.51333906823094    0.84525571779682   -1.03754662760475
H          -2.77135455836273    0.64300698998406   -0.13250163235210
H          -1.70802572852430    1.38942663945227   -0.94000860168425
H          -1.86344330146930   -0.56187607725055   -1.56605788644931
O          -1.48988241866426   -2.32159040974289    0.87205851811738
H           0.02090897231373   -3.09001530172063    0.88559199926625
H          -1.35718496976366   -1.42520254523330    1.22002992038683
H          -1.65836585054356   -2.19764677270231   -0.07296598373324
O           1.17847962282522   -1.37086434933174   -1.02037337562220
H           1.32192680170199   -0.32924653805831   -0.06186487037163
H           1.23925658526677   -2.17520634620874   -0.44707573396329
H           0.25580181180401   -1.35868402598278   -1.35307040832615
N           2.09913095834946    3.41061780731212    0.50555532306367
H           1.47826353507994    3.18470969374005   -0.26640016598053
H           2.94236759081181    2.86011166441293    0.41047940313674
H           2.33873720983975    4.39280805651047    0.47184709532349
H           1.14094210725182    2.77581113847970    1.58638791855415
