    26
        -50.45531367  Gyration_radius:  2.49874523342 Dipole_moment: 3.249
 S           1.25228746352896    0.61051579855881   -0.59623477008134
O           1.32262305089148   -0.56477358978725    0.24753499207516
O           0.10322625434253    1.45193738994686   -0.22044599144896
O           2.47001282056829    1.36870086882861   -0.69166558294136
O           0.89973535949525    0.04730918039713   -2.04121940204212
O          -1.85007158883311   -0.79591316193350    2.17662943512286
H          -2.52557801712710   -0.60061472499165    2.82748496293779
O          -1.29974753932144   -1.59793320405782   -1.67241711513028
H          -0.49769331639290   -1.19026090937242   -2.03480445388380
O          -0.35161505708376   -2.64005241107665    0.53496194710137
H           0.40092985763601   -2.01992229900140    0.48777634549586
H          -0.90864695066139   -2.31574258389241    1.25294997152218
H          -0.98673002634364   -2.20375667815554   -0.94857876275328
O          -2.04578824346815    0.25642345884246   -0.17358159151708
H          -1.85704588063970   -0.52634630859030   -0.86560613991781
H          -2.06009986310773   -0.17286027512799    0.74581675423114
H          -1.13988551529545    0.83885589373498   -0.20036113056190
O           1.88162421838057    2.23356395895999   -3.06708898814253
H           1.12175074212777    0.80505936145171   -2.62798745581016
H           2.22768990616461    2.18648379377951   -2.14873599571657
H           2.64396634140586    2.17416287697217   -3.64762182069537
N           0.31285622273357    0.60069990098365    2.60447479812745
H           0.86503276444186    0.15836619599204    1.86786458572712
H           0.16487869228820    1.55592401463289    2.29976764203164
H          -1.01711014197107   -0.28019416839698    2.44388721588625
H           0.87339843624766    0.62036760130875    3.44720054038240
