    26
        -50.45531363  Gyration_radius:  2.49881052837 Dipole_moment: 3.249
 S           0.19796259345875   -1.05613844089314   -1.06865455028486
O           0.03108599862290   -1.77596354001957   -2.30186940089052
O           1.38829377421856   -1.72769042227844   -0.25521854548131
O           0.62257150022330    0.33645311568090   -1.29217350883211
O          -0.93510912023472   -1.10643952758409   -0.16771303878674
O          -1.36103142025402    2.26332042015568    1.34832048295670
H          -1.57541663615842    3.19336601594910    1.43273980053810
O           1.43021260636078   -0.42981212229295    2.19315886797548
H           1.54594715618291   -1.09047901118205    1.49255355911892
O          -1.17927088741612   -0.41563433311827    2.41224961293066
H           0.48691760841154   -0.52303638988386    2.49397452344722
H          -1.45717182505838    0.50374954664199    2.32013500718121
H          -1.24226074242762   -0.79846340801438    1.51636184417180
O           2.57886049602502   -2.22033668379032   -2.52159307486300
H           1.63968000894248   -2.03623434600809   -2.74370138986906
H           2.04636366282153   -1.92466413748516   -0.95941952163603
H           2.74344220864894   -3.13224668604145   -2.77258547039360
O           1.06627400445461    1.59422674602206    0.77444737431543
H           0.91093721338431    1.08898422525970   -0.16419276540859
H           0.14779680262189    1.92003759104027    1.05755817625894
H           1.32188477827924    0.80736870481791    1.43992085595926
N          -2.14969324607086    1.31139703729181   -0.95018554212180
H          -1.75948807711901    1.94123265424564    0.47152264442655
H          -1.51666944205525    1.61903762203251   -1.67944981531093
H          -1.89206260987280    0.34332030021470   -0.75118741663330
H          -3.09005639582174    1.31464508923474   -1.32499868872984
