    26
        -50.45531364  Gyration_radius:  2.49880603939 Dipole_moment: 3.250
 S          -0.47718014826885    1.40667816498727   -0.30134936298118
O           1.01151853331504    1.91497396039138   -0.53611393986426
O          -1.36679205520148    2.52441782497076   -0.46260015928169
O          -0.65359225005350    0.33541729549187   -1.26024017950598
O          -0.49142458381853    0.88025276264925    1.07424336111498
O           2.58753617231109   -0.36301209975365   -0.46116862484413
H           2.26074916375635    0.53231594178750   -0.64113965686475
O          -0.29688478401713   -2.90096785882609    0.53833258060523
H          -0.49881290765849   -3.63879351462951    1.11530906346434
O           0.34592442334518    4.18321413944332    0.56299464943659
H          -0.49779125111891    3.74320915027345    0.31834841376340
H           1.01496742891812    2.78845391988699   -0.08356792678680
H           0.39467299687201    4.98660071596678    0.03963691248427
O           1.10989733620726   -0.94477246720359    1.46757210198513
H           0.61492149823674   -1.77042409895307    1.14646043934848
H           1.84460729070289   -0.73198662921241    0.73117112948854
H           0.40763803881785   -0.13453676066805    1.36317382436348
O           0.88128182856128   -1.78350756569151   -1.84990901970974
H           2.13594028749258   -0.94969940912164   -1.12509005511694
H           0.51280321583880   -2.43836046552809   -1.24461346179220
H           0.25988848101328   -1.03076410025277   -1.82989172398831
N          -2.34065393649594   -1.29569469846196    0.29776947673422
H          -1.90656161179803   -0.68481721717718   -0.39617124555562
H          -2.43265169997443   -0.73512318464769    1.13707927462435
H          -3.26933825672522   -1.53089440147560   -0.02931032169877
H          -1.15066322024760   -2.36217941427699    0.42907444057130
