    26
        -50.45531364  Gyration_radius:  2.49878886009 Dipole_moment: 3.249
 S          -1.01315520481615   -1.02456710743617    0.46947779751776
O          -0.50075165216282   -1.04548722044999   -0.88519959400970
O          -1.55297689502849   -2.27171979603116    0.93850939386192
O          -0.01062043860961   -0.47081801493108    1.39571011640029
O          -2.18715615646645    0.04796811062459    0.43848243377314
O          -1.08617237892970    2.31014750283920   -0.72357020199267
H          -1.71554640339492    1.64053868655763   -0.41317498971178
O           2.63601270799306    0.95155509647664   -0.96923417348272
H           3.55069016041902    1.19989874943290   -0.82859424596655
O           0.21219713182802    0.94131116361935   -2.53963347880617
H          -0.70317880321008    1.94546926372822   -1.56576845298058
H           1.14941910040538    1.01888729583589   -2.32378605175780
H          -0.08691720508087    0.11655366668409   -2.11131785867378
O          -3.19546632295201   -1.08366542230589    2.55958664107888
H          -2.57124302335170   -1.73758232144748    2.17493332350411
H          -2.68092542084400   -0.14888157990847    1.26626123873375
H          -4.06899532134231   -1.47835996395272    2.50597603099034
O           0.85895293660662    1.73271382609938    0.73408603593256
H           0.04620974842797    2.10827648440645    0.16333041610969
H           0.49871519971557    0.78109650463160    1.08798427636754
H           1.59433740441118    1.51022475920503    0.07115104401595
N           2.20398942576266   -1.52293454377141   -0.26062180022656
H           2.55500075948609   -0.03591785524626   -0.74663242572264
H           2.67125675567410   -2.35061671372453   -0.60899741308811
H           2.16236790498997   -1.58406265105605    0.75017185464507
H           1.23395598047291   -1.55002791988731   -0.57912992652511
