    26
        -50.45334090  Gyration_radius:  2.59392821372 Dipole_moment: 3.800
 S           0.59414258160344    1.35664074498174   -0.09015737798207
O          -0.52514663466391    1.20883436374615   -0.97454377147714
O           1.57286475880548    0.19290688845322   -0.23386255442906
O           1.43891507423705    2.56147241039236   -0.52296801678904
O           0.23061537466981    1.49757403804734    1.30334221739909
O          -2.13237595969429   -1.51813700439420    0.66089213336442
H          -2.60248297000180   -2.01812305713271    1.32980277675240
O           0.14590490987050   -2.79876682887010   -2.26494810448479
H          -0.26426737538979   -3.62858427633820   -2.51246541693973
O          -2.39221502327209    1.05716525354061    1.12085495654297
H          -1.47726160930526    1.27186101854972    1.38733901195416
H          -2.46496766520177    1.40656925348467    0.22689867962821
H          -2.26857910397156   -0.55850415427875    0.88269376513005
O           0.50665724559334   -2.00313493606186    0.23654744416770
H           1.14108029574132   -0.75362704470409   -0.00982632253515
H          -0.43525575001071   -1.83359301642472    0.45126555013133
H           0.50097222225192   -2.40414329956035   -0.66819203195058
O          -1.77140446933698   -0.96989190246817   -2.07718236972317
H          -0.54633524071000   -2.10230862838845   -2.37370058849704
H          -2.12761889735904   -1.25713748571398   -1.22426534086778
H          -1.33313304794436   -0.12414537725315   -1.89062875033890
N           2.94750247483941    2.30298314313814    1.53230379198062
H           3.57665372248067    1.52233049408215    1.39859506851630
H           3.40820099948906    3.00846082706684    2.09191202098888
H           2.15800142194938    2.61341813356255    0.20233663229679
H           2.11953264529068    1.96988042255528    2.01795660713960
