    26
        -50.46000142  Gyration_radius:  2.49614745242 Dipole_moment: 2.090
 S           0.32573761854781    0.65363845406316    0.76561039459933
O           1.22183367172059    0.27468425927493    1.98919251789160
O           0.29439411443432    2.09350089308831    0.62808916208358
O           0.94717213955515    0.01169033679621   -0.39973844537222
O          -0.98518690812450    0.07496238596107    1.03425121078644
O          -2.49143818326305    0.13332245221809   -1.13212081346112
H          -2.16420211466216    0.07156983484940   -0.20842691943108
O          -0.78841090802758   -3.35639365396046   -0.67999078501393
H          -1.69994528824861   -3.62722195154479   -0.55267257692059
O          -1.47621327389272    2.58358420770118   -1.29202604601107
H          -1.97565201748075    3.34863736616156   -1.00033860515763
H          -0.77532001821369    2.44904471754085   -0.61741307362710
H          -2.28375277538735    1.06304339315525   -1.38062761824066
O          -0.12881315379188   -2.33665804233574    1.65740238266735
H          -0.53614770483315   -1.45311319950225    1.54018720309959
H           0.76050674725056   -2.15897162396997    1.97022539038845
H          -0.46199562027631   -3.07067502608258    0.21081577284148
O          -0.55148921582183   -1.17894169650436   -1.98980786106186
H           0.15274054788457   -0.67942265503345   -1.40068900550752
H          -0.63330759741994   -2.10689222400321   -1.55811995910743
H          -1.44877598091965   -0.65428022929266   -1.75556010719335
N           3.09516826885851    1.63459764072814    0.81605002157875
H           3.94886637328367    2.14796741419134    0.99639746878108
H           3.22414295902832    1.06419506062604   -0.01075810636296
H           2.08214598090013    0.72714236136717    1.76152853006374
H           2.34794235889171    2.29098953450932    0.60853988769352
