    26
        -50.47393293  Gyration_radius:  2.40342741623 Dipole_moment: 4.923
 S          -0.48144333539364   -0.29928549992653   -1.57023622423894
O          -1.29184176772470   -1.48386690612188   -1.41946970911733
O           0.89484617027232   -0.51139760119048   -1.08587857633400
O          -0.37884420602464    0.01337119998570   -3.08844081852197
O          -1.06493523673005    0.86710455542852   -0.90898607295924
O           1.01015688308019   -1.74844528074454    1.26161249757198
H           0.12542723732043   -2.15121939268930    1.31066024119259
H           1.08583906537205   -1.43543632029862    0.33356909945621
O          -1.67040590835677   -2.25975094753585    1.00954825329977
H          -2.23651974249595   -3.03304722209851    1.00658765712571
H          -1.56138794125652   -2.00093872629298    0.05410517245669
O           1.21034693762164    1.82818975608912   -0.07239573589830
H           1.32086989428240    0.90404899450285   -0.41219072482418
H           0.27171217690192    1.97708352171603   -0.28860539653538
O           1.61668281295045    1.76205353507078   -2.85618011779402
H           0.28519217108745    0.73297732069967   -3.12675026328420
H           1.59843752591008    2.09778427189163   -1.94471687640292
H           2.35245616111031    1.14615969755435   -2.90094346103499
O          -1.94223320666126    0.41732288092396    1.53863039271556
H          -1.78308353999510    0.66266452007135    0.59817880311199
H          -2.06376571423479   -0.54781805436112    1.51846485616034
H          -0.50921042182251    0.63160898829814    2.10906546664250
N           0.55789366704512    0.63098747070017    2.24554967812124
H           0.83449437592036    0.89691261656127    3.18311713243416
H           0.95688841595911    1.26782207085430    1.51602998976857
H           0.86242750586839   -0.36488545912809    1.98967471689041
