    26
        -50.45334071  Gyration_radius:  2.59439448846 Dipole_moment: 3.801
 S          -1.02582870345128   -0.81005189322697    0.70047395155611
O          -2.28221621480136   -1.23820799468291    1.46931572708654
O          -0.06234914066767   -0.26714428694135    1.61369731387645
O          -0.53522648649775   -1.92459058201074   -0.08115830370525
O          -1.56165997917699    0.26342087247603   -0.24455592733525
O           0.48749376909962    3.56760885898773   -0.16234124399818
H           1.11505070628780    4.26372748386179   -0.36160389806988
O           2.59256729423439    0.30002448761519   -0.69217293412762
H           3.29558818459017    0.12358646452382   -1.31911963619272
O           2.02661569877869   -1.88497597528282    0.65548332437828
H           1.84726469877836   -1.52998117380981    1.53201099976341
H           1.14152334341943   -2.08131308080370    0.29174434045917
H           2.42542817765640   -0.55482660877877   -0.21255984023740
O           0.24273297462532    1.33882847421399   -1.57419798487729
H           1.09180560739818    0.92715360722763   -1.30642580486042
H          -0.80662312610723    0.71665592453933   -0.84226916262845
H           0.25334048413008    2.24428576173503   -1.17485353378458
O           1.67740396799911    1.84722455319435    1.47496349673786
H           2.22866685465906    1.41078134855259    0.80975775201420
H           0.87944445853104    3.04224093128288    0.57687127247184
H           1.00961371249747    1.18550441015303    1.71644986771752
N          -3.30079664803827   -2.24342368421663   -0.65676253067921
H          -2.34794707032840   -2.46594295835075   -0.93042158019978
H          -3.88598363606051   -3.06049339723244   -0.77036059315301
H          -2.86341083618333   -1.66579690926543    0.74472760341778
H          -3.64249810134878   -1.50429464374245   -1.25669264563774
