    26
        -50.46000129  Gyration_radius:  2.4958897435 Dipole_moment: 2.085
 S          -0.27898390034091    0.74335386826331    0.70034389321287
O          -1.05093438919372    1.91068141277875    0.33374348733766
O          -1.08533476651848   -0.46655986256772    0.80726850136677
O           0.85238282709970    0.53365453436149   -0.21201856097420
O           0.34955508540955    0.96745148187866    2.11404337691329
O          -1.80166625413923   -1.32354944312068   -1.58403243747696
H          -1.72985493996468   -1.16630926731895   -0.61750412313708
O           1.35095374022152   -3.23180524122114   -0.27552964268335
H           0.73429873234517   -3.96676743550208   -0.27918470647521
O          -2.27401490188912    1.26742104950375   -1.93611241184148
H          -3.16125265626001    1.62508390935621   -1.86739561654293
H          -1.80133851673808    1.56892927057595   -1.12980225000817
H          -2.07791707996228   -0.44536345900098   -1.93297611036229
O           0.75927140975897   -1.95754502476692    1.95252184050840
H           1.24167249207539   -2.78871994793696    0.60392886896002
H          -0.01906878990123   -1.46156457173483    1.62312983698352
H           1.30163903758594   -1.30054747323422    2.39354254797249
O           0.67877874699236   -1.33540325090499   -1.84553887171938
H           1.01116549511132   -2.13619050765103   -1.29565204819115
H          -0.38432355259840   -1.40219368044689   -1.86901008900079
H           0.83116951047172   -0.51070008904704   -1.22165085288576
N           1.40717415396504    3.11356906253360    1.10913414871203
H           0.49999314486632    3.23305431260758    0.66762891790339
H           2.01592740406798    2.68847653048150    0.42034450709233
H           1.77835997876147    4.02178293067509    1.35864980561453
H           0.85234799878847    1.81976089143374    1.98212799872381
