    26
        -50.46000107  Gyration_radius:  2.49573385029 Dipole_moment: 2.080
 S           0.93122583451752   -0.16994052701909    0.47675324648079
O           0.28871765714427   -0.62458464951816   -0.76302811537823
O           2.31401841619441    0.42015578339845    0.04835506416739
O           0.18794351193399    0.93734114299209    1.06575538237952
O           1.14694457705960   -1.26409595026533    1.39822214007107
O          -2.35426405974375    0.29593208084840    1.36856418138592
H          -1.47339102972193    0.72579797480781    1.42639580057719
O          -1.78655863827227    2.34150303282598   -1.91561577922714
H          -2.31691582820411    2.98429930821024   -1.44021859134218
O          -1.27172473783157   -1.96643397296000    2.24590121847824
H          -1.18074168519226   -2.14398811274637    3.18401376540598
H          -2.19381829044490   -0.59483870797472    1.75594432345181
H          -0.36437400057015   -1.77923698915398    1.92016990161707
O          -2.11062639653291   -0.05121887108110   -1.08928177829867
H          -1.11599079769837   -0.36685741348556   -1.02958343545049
H          -2.36467058906443    0.07675364091318   -0.06241626748426
H          -2.05585736125031    0.88935140229817   -1.49740514179604
O           0.61548688992448    2.65797259713826   -0.88192635850300
H           1.44148747960523    2.34062441413960   -1.25251702969959
H           0.48450287308954    2.12877760035759   -0.06762731329897
H          -0.84895266450149    2.50453089720881   -1.64010894451263
N           2.90239666062811   -1.98747404869455   -0.72034589213802
H           2.21710482118298   -2.09086621516523   -1.45886743328712
H           3.68006105985921   -2.60869663037597   -0.90517812572064
H           2.77944749759427   -0.38689207006686   -0.31017330703742
H           2.44854881029005   -2.26791571662522    0.14421846915444
