    26
        -50.46000121  Gyration_radius:  2.49672656357 Dipole_moment: 2.108
 S          -0.39925965275046   -0.45891549702076   -0.86331850080500
O          -0.09246923089903   -0.07405547946776   -2.34696047536762
O          -1.57877751895732   -1.29601533257544   -0.82451892180008
O           0.79619088748440   -1.13008878239843   -0.36738973637073
O          -0.61275447012400    0.81022980421124   -0.15647795726446
O           0.69836966322601   -1.38732477628501    2.25746970869449
H           0.92232536231335   -1.47560009440390    1.30554299607054
O           2.80747096911870    1.73435986003061    1.21596700327891
H           3.51081204127086    1.20830224223319    1.60194101693750
O           2.51881816300909    0.68756138460278   -1.18387114033890
H           2.05511163289363    1.08354481578689   -1.92438863325635
H           1.97409270973010   -0.08657445402077   -0.93034099680722
H           2.74318428962968    1.45040830358570    0.26887972202027
O           0.48633834322565    1.08993298808955    2.05847369664562
H          -0.03980551677940    1.05541291757834    1.15600575813839
H           0.59073634212114    0.05610519352680    2.29395919061405
H           1.42034526272502    1.42687358185249    1.79684648010450
O          -1.80203574916513   -2.09304012002712    1.70066435715519
H          -1.79170365450460   -1.78057570588833    0.76967417337445
H          -2.06313488416209   -3.01515405738859    1.66339246887526
H          -0.23169442750206   -1.70752060407293    2.29856482116454
N          -2.51329662406819    0.85851697897168   -2.42779290639320
H          -2.43415130259078    1.62147832319518   -1.76665205733856
H          -3.27125771843514    1.05783009973225   -3.06860347360248
H          -0.95460812921593    0.33953076632355   -2.63448312855289
H          -2.73884678762319    0.02477765387037   -1.89258344518975
