    26
        -50.45334078  Gyration_radius:  2.59408538092 Dipole_moment: 3.802
 S           0.82782293691678    0.87606679154393    0.86436046374442
O          -0.61813681177976    1.32348633503995    0.66004861608466
O           0.89601788915583   -0.49525891249766    1.27852796993242
O           1.58556025231121    1.16901318289904   -0.33313021565412
O           1.30262471051956    1.78457701208788    2.00521219185588
O          -3.16142042154521   -1.61798475050555    0.61500877130403
H          -3.75159712083993   -2.31709375469131    0.33029331904548
O          -0.08647122908416   -2.02097162930453   -1.78713647438409
H          -0.06222305093461   -2.30185205980954   -2.70306890108274
O          -1.80292945901389   -0.05387235317080   -1.03684165957337
H          -1.13392859233240    0.76242235826161   -0.08287108836095
H          -1.17132104108262   -0.73125873903111   -1.35982618224469
H          -2.44311309890312   -0.54480491016728   -0.46363145300549
O          -0.73335980892717   -2.66308293266978    0.87702097944757
H          -2.31557382179038   -2.05645088377724    0.87643204693722
H          -0.52029021763223   -2.70822483517465   -0.06606327078136
H          -0.16345403175394   -1.95936475464717    1.22653338647167
O           2.31920366693930   -1.30302677409845   -1.00733503770234
H           2.33351086723405   -1.62733571797193   -0.10117381219702
H           0.84476842057975   -1.76715772460143   -1.54837069933912
H           2.18322959158516   -0.34010983898693   -0.91404548606085
N           1.13263864018819    3.84943394702516    0.49735090946958
H           0.16261596596286    4.11301067046682    0.38483836358273
H           1.70783797992655    4.68096855845843    0.47021973563366
H           1.27828006131396    2.71683160261377    1.58522267985375
H           1.38970772295112    3.23204016271569   -0.26757514298113
