    26
        -50.45352281  Gyration_radius:  2.59988947691 Dipole_moment: 4.461
 S           0.37521126129864    0.06175174321371   -0.89222047763678
O           0.69426735631036    1.06960475780871    0.10539851052869
O           0.88495772230980    0.53875579758899   -2.26530613126500
O           1.07955649970917   -1.20298529473971   -0.61832461693916
O          -1.06367190346048   -0.17344838464135   -0.98275879692655
O           2.63738175965283   -0.12727626585175    1.39321997256973
H           1.95039527324022    0.47978864463257    1.03901844478671
H           2.80777996325607   -0.72104502583366    0.65387064005973
O           1.32188629574218   -1.65333304838626    3.04007951325735
H           1.84354101815536   -0.98034528139187    2.51124651589942
H           1.96381515229468   -2.18480454392080    3.51450197585421
O          -2.18110975489822   -1.64762965082353    0.80617430800832
H          -2.83972170288697   -2.16486406013088    0.33772550596971
H          -1.81959477187119   -0.99614389445014    0.14254377501035
O           0.48028942542740    2.99862979400888   -1.75890470475527
H          -0.50783755819175    2.99254567101513   -1.82081410617597
H           0.67163054043678    2.74856814261051   -0.84271546398484
H           0.78768252057070    1.54450765187494   -2.22864937375328
O           0.10247677161658   -2.69644279073424    1.08848525985676
H           0.55161382923887   -2.33380477944627    1.95124537423297
H          -0.87392263857761   -2.36548969677293    1.08640472097077
H           0.54505435935616   -2.12123931426305    0.30516730165774
N          -2.13222675061995    2.39323211586489   -1.68180178605702
H          -2.70983288923018    2.75530392944766   -0.93345686896219
H          -1.86723169041174    1.43925061941921   -1.43330670578361
H          -2.70239007846963    2.34691315390543   -2.51682278642766
