    26
        -50.46000124  Gyration_radius:  2.49590531809 Dipole_moment: 2.082
 S           0.27821910342801    0.65322506560856    0.78654366945324
O          -0.75157385927516   -0.37532863272561    0.59136247304109
O           1.22127904477017    0.27531885832184    1.81645529669399
O           0.91713942103723    0.98914800965546   -0.48012852031271
O          -0.48554959763132    1.94044768305184    1.23775990674281
O           1.81173305390525   -1.18599043973550   -1.67769762416192
H           1.64228259582649   -0.25870843606829   -1.40289289886471
O          -1.67963284101696   -0.12481259543322   -3.08393408089205
H          -1.15797787393605    0.02816420534621   -3.87448172196023
O           2.62574944587411   -1.73429386297637    0.79141160402099
H           2.23011462412008   -1.58242944661843   -0.87953084152591
H           3.53404804099880   -1.58555001245598    1.06108096247863
H           2.09792660416314   -1.03281057686759    1.23164719018570
O          -0.60241943257569   -1.77403421991378   -1.46134775013271
H           0.44031410896683   -1.64834031168864   -1.64075675318002
H          -0.73111894816893   -1.26262767531723   -0.55898365260517
H          -1.09138820928414   -1.19566944479945   -2.15455210613499
O          -1.21631383050746    2.02163358758025   -1.62903357128842
H          -1.72760734769369    2.31834608255124   -0.87348369639648
H          -1.62635219353677    0.71192647977044   -2.55603056051471
H          -0.35092338929116    1.75075074396876   -1.25735229411318
N          -1.15455476065864    0.58886803408141    3.34965409914810
H          -0.86536703184154    1.65646817536036    2.11614810361917
H          -1.72013731514118   -0.12756563591641    2.91086132504911
H          -0.19273050244859    0.26279688731160    3.32325026729971
H          -1.44515889008192    0.69106750790111    4.31403118433843
