    26
        -50.45334088  Gyration_radius:  2.5929012079 Dipole_moment: 3.807
 S           0.47426936593913    1.39161622215816   -0.21245911671578
O           1.31049560846720    2.61061058150869   -0.62141820546566
O          -0.34137202081993    1.72844466206734    0.93432548303982
O          -0.27167753897070    0.91682523215913   -1.34161685313778
O           1.53918808234318    0.38298561445470    0.21348059312941
O          -2.09720730091605   -1.67152569624554    0.29787653059779
H          -2.72095471716298   -2.10319689966976    0.88357028496809
O           1.12276621000433   -3.12113296554037   -1.40504851866914
H           0.88500772173216   -4.03450021565868   -1.57043668400867
O          -2.70875314501370    0.87366009991499    0.05670679356744
H          -2.50607977934806    1.03424399874588   -0.87050916222577
H          -2.37939862373768   -0.71969398546388    0.24221970896962
H          -1.95622570098381    1.26975352252642    0.53736916754772
O           0.56196268841988   -1.81756651565961    0.83255172910470
H           0.89135504027718   -2.38079747105535    0.08849820833131
H           1.13693211733494   -0.55698005979211    0.50901283175933
H          -0.40825424442269   -1.75647281847819    0.70173807781136
O          -0.88629794915871   -1.59831418823907   -2.24339703106510
H          -0.60907059094647   -0.67502821749506   -2.12992735019395
H           0.45461447072706   -2.56907472834402   -1.87907400146345
H          -1.48300206564016   -1.77048350115676   -1.50102204996407
N           2.06810914371845    2.96341180017853    1.80101023069122
H           1.15693116135907    2.60344182871515    2.07040185050412
H           2.25587443107412    3.82131206566667    2.30278023079197
H           2.76920660035205    2.27619238125010    2.04437917773518
H           1.74158102534287    2.90226927344433    0.25898809433371
