    26
        -50.46000146  Gyration_radius:  2.49631691182 Dipole_moment: 2.097
 S          -0.02225562400861    0.34779660663384   -0.99820122573837
O           1.18827450048644    0.91017456459775   -1.81185464828818
O           0.06253185269451    0.97184988308845    0.32827922564281
O          -1.25231754865427    0.69767735375055   -1.67484345050807
O           0.19105595005487   -1.09138574516293   -0.90486500967565
O           2.08647014680025   -1.47425162827784    2.41396293949420
H           2.09942870856729   -2.43266602677808    2.45633144267358
O          -1.44090105447573   -2.16172106479486    0.87203010550951
H          -0.80941902702470   -2.01539527188918    0.13456443120274
O          -0.26818832923531   -0.49531501946626    2.31053492255716
H           0.67433161451024   -0.87381300104637    2.46034445459944
H          -0.14800759938532    0.20505989163142    1.54382763973283
H          -0.83011240794601   -1.25998196870771    1.82619117888649
O          -3.17770642389470   -0.55802088619033   -0.34137875784494
H          -2.25122689491718   -1.69217347529436    0.56850961791529
H          -2.50776415410519   -0.03231792866516   -0.83055143931618
H          -3.78334983660237   -0.89176054939541   -1.00595441265727
O           2.69589949267050   -0.97190076445971   -0.09892908266227
H           1.80897669191740   -1.12360406956926   -0.48707345084801
H           2.42310620795547   -1.23664237204614    1.51286245686711
H           2.98089374121118   -0.12881543945158   -0.45703994033217
N           0.04350553318229    3.22793493903148   -1.58189481400237
H          -0.01997621264642    4.13799093725829   -2.02085312039399
H           0.10443462944941    3.35163664891680   -0.57863961312656
H          -0.81044443154184    2.70862179901846   -1.76470354269916
H           0.96276048495558    1.88102257725809   -1.87065591697493
