    26
        -50.46000125  Gyration_radius:  2.49585580721 Dipole_moment: 2.082
 S           0.04652560467063   -0.17831361036799    1.04297498190416
O          -0.33000003466212    0.81752580361539    2.02249998345050
O          -1.09874340905926   -0.82036130896910    0.40921405442093
O           0.95689449818916    0.37382029891386    0.03169718562604
O           0.84160270913315   -1.32161903345943    1.75333190186783
O          -2.27452113846462    0.82980108895162   -1.28192016608792
H          -2.06595507999325    0.08576684514972   -0.67610111981437
O           0.18255082298000   -1.58588457086363   -3.13000486944985
H          -0.63906807985099   -1.90477588443981   -3.50908955464078
O          -1.89917225228680    2.52713051325430    0.72762952333188
H          -1.28185279472500    1.95408569267489    1.23262433855708
H          -2.27795835335332    1.61105336914544   -0.68285060503533
H          -2.60901222965740    2.74452760315189    1.33485344234508
O           0.25089250031586   -2.75123022945551   -0.76868249041570
H          -0.34800201125263   -2.13622572674255   -0.29598385583069
H           1.01742996867321   -2.83639373066281   -0.19827240701912
H           0.30672040091893   -2.08942951930336   -2.28579988916599
O           0.02906625160302    0.80013598519675   -2.23767340799871
H           0.50081498381262    0.68668661776070   -1.31203092982602
H           0.12911148964929   -0.11648324298751   -2.68934429539008
H          -0.99443486151370    0.89030513387622   -1.95539865825580
N           2.44766764618574    0.54524807690022    2.57195948841703
H           3.11938391683845    0.77158679952274    3.29478629545834
H           2.81456145168977    0.84696700467336    1.67749266017912
H           1.58201679589658   -0.81509992500801    2.19113074461398
H           1.59348123427119    1.07117593948221    2.73295765876284
