    26
        -50.45352281  Gyration_radius:  2.5998916106 Dipole_moment: 4.461
 S          -0.90143772218977   -0.12701659045282    0.33446486251186
O          -0.93873953412243    0.04832657300580   -1.11528037920392
O          -2.25226830260458   -0.70509755538391    0.79686284221219
O           0.16206270686862   -1.03095667941208    0.74024699799933
O          -0.77404076787694    1.18103957659138    1.00037644991356
O           0.77070083527695    1.63414074568211   -2.20392305451396
H           0.14829507276151    0.93983445210153   -1.84883628600006
H           0.29350033189076    2.08430857211470   -2.90419241617356
O           2.81456190432405    1.96129630521475    1.39829815267044
H           2.32015254252992    1.26297613608000    1.92041911886869
H           3.20787812058546    2.55496238552693    2.04054191217556
O           1.24128302557517    0.34289375577438    2.69332846123725
H           0.44563236024697    0.87464913714274    2.80474673002329
H           0.97627830839096   -0.31698040394122    2.01489031971797
O          -1.51519984207867   -3.12343859425493    0.51483609189382
H          -1.52715124919049   -3.15778710312590   -0.47457818480451
H          -0.63496303581899   -2.78683492718847    0.73939299900299
H          -2.12388288743165   -1.70649632802206    0.74151919936816
O           0.84455594573094    2.78403195379753    0.04702253399228
H           1.71149816965400    2.51520691308716    0.55074426811885
H           0.92081533649535    2.41981846431660   -0.91445036066260
H           0.09247433029397    2.15786844651896    0.47433256753199
N          -1.35816447388557   -2.60628556973211   -2.11300758175631
H          -1.20685118852225   -1.62531146858465   -1.87458177534482
H          -2.16403243980495   -2.65408036498446   -2.72357139142495
H          -0.55295755708742   -2.92106783189840   -2.63960208735826
