    26
        -50.46000147  Gyration_radius:  2.49628904265 Dipole_moment: 2.096
 S          -0.40809452456049    0.79232533851227    0.56954204679775
O          -0.63448313424622    0.69158829324893    1.99493031572657
O           0.94374839457587    0.35102231763507    0.20348405792707
O          -1.41120945992126    0.08934015856707   -0.22105274464203
O          -0.49699868643393    2.29304386920668    0.14110082951324
O          -1.07009073449602   -2.52227603955105   -0.04944046153975
H          -1.43469464562860   -1.62363285055620   -0.20289658798453
O           0.57511525897543   -1.08489898427795   -3.29359365588223
H          -0.10911388296907   -1.61495834476344   -3.70752633521321
O          -0.73574831157803   -1.91253971878229    2.51511366188673
H          -0.94659783071879   -2.54924111242912    0.92692080282131
H          -0.65128869288311   -0.94347375838939    2.38021949935028
H          -1.44487244991376   -2.02663782477143    3.15071288967401
O           1.16452195539448   -1.85200264041924   -0.93190704653162
H           1.17781741254894   -0.93347679815603   -0.43299086893584
H           0.25562942402471   -2.28227880663219   -0.58006096155506
H           1.01074811232517   -1.60525217877737   -1.91655331709284
O          -0.71047478469692    1.09186323581109   -2.55371965053755
H           0.16032543458660   -0.20578393364617   -3.10179782991567
H          -0.31305788581713    1.92750301752661   -2.30067751724999
H          -1.10860022561028    0.74217958473295   -1.72940597780369
N           1.34874293241313    2.72858807392219    1.91273616199581
H           1.73199621362305    3.45007266885597    2.51059465462537
H           2.11138904438075    2.20673984129297    1.49847526608921
H           0.81538898140500    2.07430746093473    2.47820556987051
H           0.17990210521923    2.71787914091188    0.73958719860342
