    26
        -50.46000142  Gyration_radius:  2.49610218972 Dipole_moment: 2.091
 S          -0.20777409627106   -0.26544413457313    1.00293632548890
O          -1.35603188102974    0.32163180867292    0.32296256748966
O           1.00223659422011   -0.13942788442119    0.18059849482211
O           0.04198613063886    0.61962690842596    2.26706339195252
O          -0.43090739539578   -1.63334084807963    1.41788281835358
O          -1.61768786970411   -0.68544450693593   -2.10256152143464
H          -1.76977860171498   -0.23487436266944   -1.24353259062968
O           0.26133811938618    2.74243271335048   -2.18203362673119
H          -0.53257433188971    3.00614935586981   -2.65172704099508
O          -1.11371539227510   -2.94136643100132   -0.79220602509102
H          -1.48879637464290   -1.62591269523342   -1.84149332614278
H          -0.81317517709719   -2.51286246731228    0.03878004301270
H          -1.82003606579885   -3.53805139349913   -0.53733205847059
O           0.69737498400125    0.22915208156554   -2.26137062105625
H          -0.28033634097672   -0.18601930545404   -2.34428414658099
H           0.58872119126216    1.24867631491713   -2.31556423230019
H           0.92747880558015    0.04521493777763   -1.25850474895372
O          -0.48183747101252    2.80614001612639    0.34418316770076
H          -0.93596166776816    1.93827300341284    0.37432747247712
H           0.06122370898576    2.86338057042293   -1.21920131021765
H           0.09872971595855    2.80753487195131    1.10786272510195
N           1.96493790514229   -1.03075858121549    2.82718679376223
H           0.80693233190841    0.14695193604839    2.70074888561056
H           2.57644050842273   -0.84889066946262    2.04066510210061
H           2.51738037855625   -1.39046310075744    3.59550284617763
H           1.30383227149153   -1.74230811793092    2.52911060457778
