    26
        -50.45352279  Gyration_radius:  2.60006124736 Dipole_moment: 4.458
 S           0.53000741813707   -0.78693509265409   -0.19957268051396
O           1.10100743685571    0.53872401833828   -0.37113923048080
O          -0.43842838984778   -1.09374524922164   -1.26664231191602
O           1.65077954694655   -1.83509096457673   -0.33411621845209
O          -0.09936590827534   -0.93979985834037    1.10981320664425
O          -2.20746703582145    2.01537330920157   -2.18743970829192
H          -2.64613259601883    2.20542030093029   -3.01874029630948
H          -1.25073644776962    1.81494359905693   -2.40916769434161
O           0.18339106812404    1.15395953634115   -2.74727403147126
H           0.02356901501994    0.22865691930575   -2.96291983688715
H           0.62522084148754    1.10646379696133   -1.87065668227023
O          -2.44061681503431    0.06459587313512    1.47385601306620
H          -2.90889885597775   -0.56841114245125    2.02231388983937
H          -1.49949830976352   -0.26213823398728    1.41874276180444
O          -2.71667590893335   -0.17155613930426   -1.02867957421249
H          -2.74680963321874   -0.01353821929941   -0.01035621162335
H          -2.60529166338245    0.75460620926408   -1.48375334298765
H          -1.76717563043620   -0.64173300987088   -1.16351200712796
O           3.43210117167176   -0.31855880728196    0.66506289360674
H           2.91399568856905    0.39904848297920    0.27124548436951
H           3.13335780255368   -0.35688273282047    1.60819790051492
H           2.46890482171389   -1.37044579766178    0.03605669467741
N           2.04039310358020   -0.45387755467576    2.95461421078842
H           1.86753455390431    0.38951232645863    3.48710704846410
H           2.14970191676319   -1.21638166630424    3.61119739463537
H           1.20713281910740   -0.64220987355460    2.39576229846932
