    26
        -50.45334092  Gyration_radius:  2.59305661806 Dipole_moment: 3.807
 S           0.88170778090191    1.07201932887910   -0.52878079885997
O          -0.53206355849797    1.50257820765445   -0.14337833777314
O           0.86048114277687   -0.06543854060954   -1.40208205958725
O           1.41045417049382    2.29570323258153   -1.28750437749853
O           1.66016287702994    0.87713133258177    0.67528759768172
O          -0.20638878461748   -2.51342574628130    0.96183356257210
H          -0.19450663265095   -3.10191274397048    1.71813823992591
O          -3.26709460523287   -1.10281485947451   -1.04125830620775
H          -3.89877103606409   -1.82228702631876   -1.00300001650278
O           2.23611004722991   -1.71242511718441    0.41181222871318
H           0.73821464043150   -2.24858400810823    0.79945731343187
H           2.22128505771065   -1.69370903085497   -0.55047117744489
H           2.16382087177401   -0.77310599079363    0.66984976686479
O          -0.91610871961750   -2.12683588420878   -1.73587059982449
H          -0.30082407214040   -1.38245514244194   -1.83342192877178
H          -0.69846385575739   -2.51677089850000   -0.87715553109735
H          -2.45473101804676   -1.46775220443138   -1.46880506732801
O          -1.78925977240533   -0.30647621469943    1.00879865993460
H          -1.07637118826735    0.74990043337815    0.37603382878556
H          -2.46791368940237   -0.52466676489136    0.32240031798039
H          -1.20288572287434   -1.09160377587601    1.05238464799161
N           1.37337944207163    3.69994468955653    0.85573873603911
H           1.44583652616351    3.01912249910645   -0.56540313231643
H           1.99879535675700    4.43393983187080    1.16103359084284
H           0.42177017565261    3.96162793911689    1.07715122424162
H           1.59336456658168    2.83829646391110    1.34721161817958
