    26
        -50.45352270  Gyration_radius:  2.60000179639 Dipole_moment: 4.459
 S           0.04713397935620   -0.20133341171014   -0.94791667275168
O          -0.80568834671346    0.96570896079173   -0.73697741792250
O           1.46615225554704    0.19194114637135   -0.89893866102625
O          -0.24029045503016   -1.25803259071971    0.00778883911637
O          -0.19232271036788   -0.73694786998279   -2.37215033107675
O          -0.21559849036799    2.59180589576169    1.16837684991442
H          -0.40321950002176    3.46805726845303    0.82524168151845
H          -0.54394947457545    1.95000360599595    0.47865617739097
O           2.18462378689614   -1.87743741250261    0.78443860056131
H           2.57491058347001   -1.48553388894203   -0.00440105016755
H           1.21901326990442   -1.80162307137018    0.61787247714901
O           2.64386591077658   -0.06348649018114    2.59280547879353
H           2.43813420961978   -0.84539672477920    2.00033499956189
H           3.54848542779896   -0.17685003348077    2.89013633164315
O           2.15090566870490    1.74296873383018    0.89638099268302
H           1.24334719750347    2.17680899591238    1.12203187475133
H           2.37518606539695    1.07695594674066    1.66029263392860
H           1.90890355004740    1.11409634161983    0.06775883649053
O          -2.08322530776132   -2.28400660803354   -1.66338134678128
H          -1.60153961511196   -2.34065557015456   -0.82473950897153
H          -2.77683511082589   -1.59440768979822   -1.50962665188404
H          -0.95070198630938   -1.39673588376011   -2.26316858835608
N          -3.46206544576903   -0.06535259406379   -1.05196135634380
H          -2.56865795586321    0.40985134668134   -0.91755213654555
H          -3.96981697207373   -0.01533824258345   -0.17764197753329
H          -3.98675055421481    0.45493983989971   -1.74366006414559
