    26
        -50.45514721  Gyration_radius:  2.45715017841 Dipole_moment: 5.615
 S          -0.99957591057045   -1.24475173103329    1.15259559388456
O          -0.10821624691264   -0.12190076633971    1.26647391114041
O          -0.24223373623333   -2.53211075758864    1.48686936519223
O          -2.20441723566950   -1.17064041353464    1.91791317613042
O          -1.37790737579563   -1.41120982136835   -0.34504013790869
O           2.45236744568994    0.48305473130520   -0.70200747440819
H           3.15111806716327    0.94561864263010   -1.16691966813155
O          -1.16299806884530    2.37988327904917   -0.75330589950546
H          -1.65873650584750    3.08927350072184   -1.16547442218074
O           1.15023746286994    2.17657152782672    0.81834559678645
H           0.73735458060829    1.43553672326506    1.29161433655410
H           2.04947910666961    1.14602689144071   -0.07330742711986
H           0.43218256110946    2.51063033601278    0.25947260695841
O          -3.04453549992111    0.85401194772065    0.37303361697770
H          -3.37338802099013    0.28167088729969   -0.32508309523492
H          -2.81495437817554    0.24976229682155    1.10234125341680
H          -1.81466357360215    1.86009994075962   -0.22620661030748
O          -0.00505100220852    0.14300283618156   -1.80516530351889
H           0.90976665749548    0.17828892484962   -1.45816447129414
H          -0.80018646060739   -0.81953720093508   -0.95369515513916
H          -0.40584760172764    0.99570372575781   -1.54684009235111
N           1.90205199876469   -2.27998990727263    0.12271541308968
H           0.66883464552124   -2.47249217281635    0.96503996370637
H           1.76131209312436   -2.67761921231656   -0.79715228524812
H           2.08660460676262   -1.28373012063700    0.01636707701710
H           2.71140239123090   -2.71515409774666    0.54558012152540
