    26
        -50.45812672  Gyration_radius:  2.44436291363 Dipole_moment: 3.960
 S          -0.11230640422149    1.40240104162437    0.42185911245972
O           0.46659628658216    2.76857718735366    0.86464476259774
O          -1.03547476902331    1.61622353623334   -0.68552896543894
O           1.01525829415525    0.56561936137328   -0.01115150278166
O          -0.76886094252864    0.81066102619045    1.57843228478666
O          -2.18110647752260   -0.63058341480031   -1.27018868989230
H          -1.89781601030280    0.31644355605311   -1.15376505878292
O          -0.05907956456048   -2.88222221935598    1.13343784630416
H          -0.09369297637136   -3.59382890353580    1.77469838344195
O          -2.10265036512141   -1.25327872675850    1.10570062395933
H          -1.63566742047964   -0.38760403271469    1.41924120144072
H          -2.26717388301344   -1.02529455081084   -0.00173980234956
H          -1.38375331025639   -1.95542280311684    1.13998627455123
O           0.25147393809705   -1.57252217681057   -1.42746040457616
H           0.28321464218586   -2.26867713754922   -0.76077852463056
H          -1.34732770799564   -1.08518838188837   -1.56814374877707
H           0.62596064780291   -0.77229825411579   -1.00152327025978
O           1.81540970782614   -1.17544756696757    1.76059857864519
H           0.66385076731396   -2.26470567829208    1.43457492536553
H           2.72534926489451   -1.34042134755394    1.50578580415212
H           1.50983766827083   -0.42504093970218    1.19504547361871
N           1.18199760890869    3.10277672045225   -1.61794579825267
H           1.32077554671115    3.86412352512761   -2.27011369055800
H           0.28067622382107    2.66885407516057   -1.79799019878291
H           1.89420837065100    2.40219081071468   -1.77917076207905
H           0.85030086419043    3.11466530369134    0.01149511582917
