    26
        -50.45379102  Gyration_radius:  2.52546217785 Dipole_moment: 3.711
 S          -0.65645450973970    0.31189223040207   -1.20841181231765
O          -0.95102206431555    0.51353220289619   -2.71250113492075
O          -1.06981447171840   -1.02130215429220   -0.83833908765755
O           0.81911830325978    0.46960370617069   -1.06960015404975
O          -1.33235463908910    1.34826930503221   -0.44458180210293
O           2.73217737878342   -1.99025374223954    0.50448538256827
H           2.92054451556391   -1.92742077204228   -0.43418643752049
O          -0.29452341711813   -0.68418035149405    2.61479790801464
H          -0.36721081618981   -0.35658342199060    3.51272954479825
O           1.68699926654083    0.22440305950216    1.19056319380692
H           1.26191247714004    0.41433329537417    0.13956042089986
H           0.91806529763399   -0.07660708922815    1.76840263427294
H           2.24483082783060   -0.62134021275826    1.01404011121254
O          -2.50152637349228   -0.15405052448801    1.36075257521733
H          -2.61531331177677   -0.91093179171088    0.77586032977978
H          -1.16939442959899   -0.47342666607145    2.16820138916014
H          -2.18188184419839    0.55316705686048    0.75772277539103
O           0.24130426976116   -2.75887174432613    0.72257818333964
H           1.85361867556259   -2.45439702821690    0.57851711644359
H          -0.02159497359650   -2.38422584190121    1.57206518265872
H          -0.24653933692128   -2.24036007103125    0.05164599239783
N          -0.21432954359227    2.98877262990585   -2.45059545399885
H          -0.69235855410418    1.47165917613660   -2.85524930449840
H          -0.63561259117595    2.87828060545512   -1.53174335429181
H           0.78997325463527    3.01500949082321   -2.33221928629190
H          -0.51861336012562    3.86502867326199   -2.85449488225595
