    26
        -50.45334067  Gyration_radius:  2.59414566864 Dipole_moment: 3.812
 S           0.67078162996067   -0.33569156004647   -1.27942748906974
O           1.72925337534967   -0.55485517592441   -2.36757625450344
O          -0.61286312861473   -0.08526784468877   -1.89872431323415
O           0.67501408135086   -1.44486196888748   -0.37034210702960
O           1.15215934587505    0.94325325444148   -0.59723217554129
O           1.35482054105710    0.64957037439576    3.27583004068061
H           1.15309412891894    0.69465073227552    4.21143828278301
O          -2.05952413032185   -0.44944047259731    1.68646768775242
H          -2.95423171280695   -0.23665866030612    1.95595155322630
O          -0.24716097516556    1.54896511975979    1.36644348646700
H           0.54902857777247    1.23372420955653    0.22997478083820
H          -0.94415526323822    0.86456165112178    1.45469215811706
H           0.38613353537859    1.37495533139451    2.10676806030259
O          -2.10273905432722   -1.83462330422762   -0.54741880712160
H          -1.38009625590638   -2.45423812416990   -0.40467778007618
H          -2.13866441756862   -0.97290476366211    0.84478878511772
H          -1.73078274007592   -1.17159215324487   -1.16091181433300
O           0.39968379741730   -1.64972826582459    2.34991301607460
H          -0.53236470966060   -1.39007204972316    2.32323056160450
H           0.66821110382294   -1.70644476928016    1.41890130463941
H           1.15487787699988   -0.27534800400438    2.99190891571195
N           0.96226068723973    1.55206471945031   -3.60809059800450
H           1.59496532639583    0.24799575153844   -2.98695543410129
H           0.03081197006832    1.33762495953217   -3.26351604109895
H           1.29955925999971    2.37695056682657   -3.12986435568502
H           0.92192717010538    1.73741043630987   -4.60157144352714
