    26
        -50.45731619  Gyration_radius:  2.44430661206 Dipole_moment: 6.854
 S          -0.99715783325991    0.63441492095059    1.61384755660475
O          -0.19147876899453    1.19592878401419    2.67585327882430
O          -2.46088503803305    1.15154044708775    1.75472940778089
O          -0.51851112600270    1.14776851024879    0.30489674487883
O          -1.02054061238718   -0.81778983149216    1.62241307775032
O          -1.18546449356684   -1.34202893001033   -2.23249343907248
H          -1.40996099604834   -1.65007164697318   -3.11114562893592
O           2.65286854773712   -0.45108268152533   -0.25722022644772
H           3.40828997708897   -1.02717046403748   -0.13321969695315
O          -3.00710038085913   -0.64676590711686   -0.14678597594992
H          -2.92346161467611    0.69016274827641    1.02587235147531
H          -2.53596793642802   -0.76118159190787   -0.98668298034210
H          -2.43620133381402   -1.08159769108313    0.50570821127885
O           0.57284113182446   -1.97510958851426   -0.12411898493940
H          -0.01117771713094   -1.94734587774695   -0.89877502291171
H           1.84641300253207   -1.05420205327576   -0.20304456839826
H           0.01959043938079   -1.62880248482558    0.60936096817027
O           0.55761920192935    0.66851232666758   -2.10416994418802
H           1.39670166398219    0.31444808990175   -1.78878589153129
H          -0.58677330443059   -0.56668790053601   -2.34216245206646
H           0.07160760248498    0.93909130565362   -1.30294627396734
N           1.81141559061101    1.66769341678539    1.11200776502621
H           2.32436282231394    2.54051389522307    1.05706248651494
H           1.41040230725277    1.48127944898058    2.05769914462985
H           0.87225382306223    1.66770438233475    0.57544736282461
H           2.34031501543085    0.85077835292012    0.71665271994461
