    26
        -50.44846800  Gyration_radius:  2.54431004914 Dipole_moment: 1.895
 S          -0.07761653341808   -0.79245901384499   -1.43535269237220
O          -0.19481935166541   -1.97388011328201   -0.49064393771296
O           0.22516066320890    0.41627027825589   -0.70762636290758
O           1.13548367542813   -1.16031720221909   -2.32403431685172
O          -1.26451657182470   -0.70179312769872   -2.23960733663270
O          -1.74424035959875    0.10026309580634    2.17985161785296
H          -2.44054636359051    0.00122208366189    2.83139764227849
O           2.30011274080188    0.33139534831078    2.17808276578255
H           2.58417282771060    0.51327336404034    3.07518395811582
O          -2.82650189948104   -0.82789812865608   -0.07616896481683
H          -2.38807469034437   -0.64333397022741   -0.92849688798898
H          -2.80542201554479   -1.78476503987409    0.00702633129038
H          -2.14709947900947   -0.13168807357629    1.30962602975052
O           0.28644339346116    1.93669608861983    1.51054883824492
H           0.27955226494029    1.56181421409761    0.61431798701080
H          -0.48295122278091    1.53025685556752    1.93333806661878
H           1.66598357988113    1.04844613955732    1.93147677041857
O           0.42213343730227   -1.50640275451128    1.85781127588454
H          -0.33843868430398   -0.93675035357555    2.09825806496299
H           0.14723041156923   -1.79121278290442    0.51659430123155
H           1.22056483798823   -0.92198114892260    1.91362358182472
N           1.32932623654912    1.25523489982335   -3.23282593369315
H           2.15606758037327    1.79575142864767   -3.45203216924336
H           1.36423756200865   -0.30629987207625   -2.81362029004943
H           0.97267134823742    1.54364759236617   -2.32703347492167
H           0.62108660216343    1.44451020271322   -3.92969486406550
