    26
        -50.45622821  Gyration_radius:  2.46216121991 Dipole_moment: 3.316
 S           0.30888613768172    1.69286762049759    1.19669524895540
O          -0.51122563595394    2.63506810261607    1.87029322872490
O           0.13919935539719    1.89580138649461   -0.32360778321610
O           1.79144739782718    1.95313139289533    1.45874636033877
O           0.02641771939109    0.29676937954644    1.49795808487445
O          -2.20436961047186   -0.36969612217521   -1.62164356070939
H          -2.89975067253365   -0.10643041395782   -2.22539113949687
O           0.95240416143967   -1.85741623930992    0.26291429010494
H           0.66250646993172   -1.16383151695798    0.88812217529057
O          -2.47548485065285    0.79759797283286    0.76444794379202
H          -2.47052485912995    1.73974565042375    0.95563996386912
H          -1.65374424266733    0.47118832677655    1.17318168564080
H          -2.34761253856601    0.13738836654221   -0.78767936041943
O          -1.63879990867100   -2.60687665494865   -0.05155958716331
H          -2.07209935284007   -2.33035482725004    0.75871557363138
H          -1.89369769991878   -1.95505463389963   -0.72457668108177
H           0.15927984388125   -2.41617023410331    0.14882004730452
O           0.52082924809359   -0.17020884335245   -1.72220460731844
H          -0.41820472807342   -0.31025698595828   -1.93937736133756
H           0.34742956293599    1.06404162957379   -0.90010891323074
H           0.74370879609497   -0.88586627945001   -1.07049367725353
N           3.03633856848557    0.24041467887587    0.02972925298978
H           2.67292970815043   -0.68529659062350    0.23632439725828
H           2.83208705133339    0.44553477510441   -0.94128914518812
H           2.35295255725035    1.25084121396062    0.90380951197213
H           4.03909753161133    0.23706887584760    0.16253407164419
