    26
        -50.45334088  Gyration_radius:  2.59287373238 Dipole_moment: 3.809
 S          -0.43464142064560   -0.64346343725861    1.26652550099141
O          -0.51461562901250   -1.55584223771027    2.49679784315340
O           0.08144545261289   -1.58776296727794    0.18268885234155
O          -1.76396202696656   -0.19730259388400    0.90913559123124
O           0.49285949693428    0.42190272436393    1.51469402357866
O           0.03644142483727    2.22206691941434   -1.53058344173551
H          -0.38208830260199    2.75190547835301   -2.21073094217525
O           3.11149284802696   -0.19462583475153   -1.80470198438161
H           3.66014825898858    0.23041405958804   -2.46533137256167
O           0.47712336768607   -0.42089072171880   -1.97655003468792
H           1.46463022254209   -0.45965300192845   -2.02817230707271
H           0.23032349603880   -1.11119721044987   -0.75728845629108
H           0.26134452885969    0.52667039265898   -1.84337987424118
O          -1.31173584681005    2.42260440721096    0.71714923713031
H          -0.60286984592931    2.42271020124948    1.36839026273680
H          -0.51085184100147    2.33995906651649   -0.70882263647009
H          -1.68190770016430    1.52004522217513    0.76783448534780
O           2.36838251935359    1.66124063281257   -0.05484839483697
H           1.69595436429176    2.08334260920095   -0.60844040077384
H           1.86743903492696    1.20905282725569    0.64283139839487
H           2.99470193979512    0.46143423629378   -1.07545407956401
N          -2.39759311104160   -2.92109659915333    1.42111478937098
H          -3.19756505066786   -3.36959624672504    1.84764813734660
H          -2.01609030309370   -3.52987089083306    0.70919577650681
H          -2.68824122031725   -2.05281675514563    0.98077711315641
H          -1.24012464658045   -2.22923028030300    2.23952091352633
