    26
        -50.45622831  Gyration_radius:  2.46205416596 Dipole_moment: 3.317
 S          -0.33003624493955    1.85564604010682    0.91631480516690
O          -0.35297958648186    1.78962623950900   -0.62516193018052
O          -0.25017002718638    0.49317477131193    1.42324826283383
O           0.97559947538028    2.57396659172507    1.25372041802263
O          -1.45872098718214    2.59784159321045    1.35141431078303
O          -1.78815328923474   -1.22299134845457   -1.71203396077855
H          -2.44880642447404   -1.26990172705730   -2.40402175199542
O           1.39013335414952   -1.43856640969232    0.64876743851783
H           0.84081223837083   -0.78260929755336    1.12212229743725
O          -2.67734761174799    0.13047226031903    0.41064225496371
H          -2.95865629747249    1.04928314337362    0.43978166634887
H          -1.85678477118008    0.11977891765903    0.93546759329732
H          -2.17261532724210   -0.66970506003814   -0.99143328722304
O          -0.82753336104368   -2.95473460123723    0.25397104000502
H           0.80566585607991   -2.21687752195357    0.56540725752613
H          -1.41896025789762   -2.70870479009783    0.96842731742063
H          -1.16565431442978   -2.50501272556494   -0.53745774191988
O           0.76333635695356   -0.24313050481920   -1.62072483558003
H           0.15013088675314    0.98537427152165   -1.03481070242764
H           1.09132615878899   -0.76472879046677   -0.84155028217804
H          -0.06363981738296   -0.68234559085806   -1.88837804731877
N           2.82008736220117    1.12667598288830    0.23925165112638
H           2.70542379553829    0.17222361375133    0.56721917838279
H           2.69271890314538    1.12796891216534   -0.76596615317876
H           1.77627411658999    1.99982379324196    0.87226114136249
H           3.75854980719838    1.43745223180478    0.45352208215876
