    26
        -50.45622834  Gyration_radius:  2.4622630916 Dipole_moment: 3.316
 S          -0.16300255708903    1.27873724782382    1.65283995161763
O          -0.84127900502812    2.48961291582446    1.94903173973164
O           0.71089567911172    0.82667718030260    2.82182735293582
O          -1.21129003792699    0.15771567222295    1.49233195070104
O           0.65545094697141    1.30442986202768    0.44905114546653
O          -1.97641869081626   -0.34068554309082   -1.89843674997515
H          -2.87166465560283   -0.42301135523115   -2.22903740775838
O           1.80641579924871   -0.74182148369515   -0.78033897670078
H           1.56448651653453    0.10089531431198   -0.34746868048383
O           0.53658896251171    0.09208132953283   -3.03095240407276
H           0.55816245343811    1.05011157591134   -2.98083876847501
H           1.60238653465377   -0.58754729552475   -1.72315913986072
H          -0.36681288285557   -0.16626731352022   -2.78570829217361
O          -0.52819799511500   -1.72842240179524   -0.03924589430618
H           0.38214596109787   -1.48718895794962   -0.35503469527013
H          -0.91132389752737   -0.63993063960004    0.90800593351458
H          -1.12296881039882   -1.47769115460795   -0.76845282476530
O          -1.53226762559116    2.07184007885644   -0.84463825648468
H          -0.62692230959442    1.91676074321339   -0.52030940615364
H          -1.98121884738221    2.47229427362432   -0.09478558963459
H          -1.90924335789694    0.55220056964990   -1.48436394104742
N           1.68207508882167   -1.42412067220428    2.10276778259406
H           2.12512655535488   -1.31518393675018    1.19531247131027
H           2.35289616401133   -1.81438891490906    2.75149013143883
H           1.15633685566443   -0.09590399744555    2.56345100748589
H           0.90964315388394   -2.07119309762753    1.99666157073420
