    26
        -50.45622833  Gyration_radius:  2.4626426404 Dipole_moment: 3.319
 S           0.04990607988266    1.72664225736098    1.18761069185930
O           1.46698928985996    2.07781357929783    1.63827859472111
O           0.06613108828967    1.50349400394409   -0.25102646706177
O          -0.25631485300444    0.37931692373212    1.87488296377148
O          -0.89196256561702    2.68692685715118    1.64022640705895
O          -2.19450544369297   -1.66307453938259   -0.22936105996823
H          -2.96723795970864   -2.13950819504710    0.07599953119866
O           1.31712907243719   -0.41257949780749   -1.58764853063659
H           0.93752532139431    0.41693190762026   -1.23566358355786
O          -2.52912753046824    0.97978562558758   -0.05177381939950
H          -2.69549057539810    1.49510879360341    0.74255584382897
H          -2.37890375263588   -0.70445443678441   -0.08723929441965
H          -1.63402374750946    1.25085815971365   -0.32401861879455
O           0.42352326271351   -1.66437839871338    0.55945141536588
H           0.06943272713172   -0.45590507510885    1.36107203834943
H          -0.48212789793254   -1.92286341150385    0.31128994260808
H           0.82836435016347   -1.31104884832928   -0.27579622953745
O          -1.08897245998027   -0.99560261612983   -2.70393059668412
H          -1.51133944710405   -0.14305397216238   -2.82875850236835
H           0.64522156654341   -0.72614617615087   -2.22361259810730
H          -1.51406325497248   -1.39102448446577   -1.92564785549122
N           2.92449927735258    0.13695572321081    0.84188366766454
H           2.76449714059710   -0.00707477837640   -0.15076981935929
H           3.91498729922297    0.26807081091614    0.99968571797512
H           2.11650172364268    1.31116290608482    1.31143267940991
H           2.61936126890516   -0.69635312826812    1.33087748154791
