    26
        -50.45352266  Gyration_radius:  2.60018057212 Dipole_moment: 4.454
 S           0.73926102389343   -0.53907720813755    0.32054475313820
O           0.02034097812846    0.03274785069465    1.45640305460702
O           0.02075836549598   -1.71862184963320   -0.19252286964973
O           0.95704113788943    0.44302669508331   -0.72865216262635
O           2.10434624402752   -1.05801906168602    0.81069732447780
O          -2.38640455846332   -0.61008445898395   -2.76518978942821
H          -1.39145415686341   -0.63144051933611   -2.88460263962447
H          -2.75776083228036   -1.13796142250825   -3.47445356755649
O           0.19623719857158   -0.92215020839531   -2.83188217652961
H           0.52818723627433   -0.26311754139053   -2.18269352877639
H           0.31414239392672   -1.76099111815095   -2.37293564376516
O          -2.52983057399086    0.32890197455256    1.27937403035186
H          -1.53613840808081    0.32367488150941    1.36845983343578
H          -2.87445749732605    0.10855805059639    2.14736259625449
O           3.29214638071704    1.15447751266407    0.40442105403721
H           2.90394424899785    1.66034095140063    1.16178267667696
H           2.72136111037409   -0.26337043427983    0.70999375643488
H           2.65425407086372    1.26177805771968   -0.31674661390757
O          -2.43201632705287   -1.54339178031273   -0.41745591201374
H          -2.62456431823739   -0.77731660463084    0.24508014298307
H          -2.51678259459204   -1.15397738990018   -1.37579212426372
H          -1.38270441876123   -1.70013790797484   -0.29404225731484
N           1.72148827829039    2.16933629497124    2.32812627601504
H           1.94790270589037    2.09015579272558    3.31147686582182
H           1.04012966553451    1.44212815414598    2.10683097178758
H           1.27057261678385    3.06453127925706    2.18641595941513
