    26
        -50.45489013  Gyration_radius:  2.44102574512 Dipole_moment: 5.979
 S          -0.09219118309938    1.34656594766554    1.40237431514477
O           1.26994683014234    1.65986929263034    2.03849710041904
O          -1.13788494124326    1.92255549775126    2.18453118836922
O          -0.03699618894415    2.03611323428420    0.02950088875739
O          -0.18076795204401   -0.08037095286732    1.19564371821967
O          -2.12031136851347   -0.59813305747995   -1.54529573094026
H          -1.93034450156540   -1.38440990305915   -1.01591468649730
O           1.47236362877249   -1.96314344350282   -0.86040428959148
H           1.57968311038488   -2.56618094618993   -1.59863961203626
O          -2.93207478485793    1.29731889868061    0.25700588547929
H          -2.40694318347903    1.46919807656706    1.05661624377078
H          -2.99306732281207    2.13995233047973   -0.19852630224183
H          -2.51380434454363    0.04575070250473   -0.92581668734312
O          -0.95209062678493   -2.39992309312902    0.30927857339814
H          -0.76392444720464   -1.52098961462775    0.70789341040853
H           0.65024628594075   -2.23128105584504   -0.40229397982089
H          -1.22761301308765   -2.96512279826617    1.03247609903711
O           0.30566336306918    0.35594388080092   -1.79302505038800
H          -0.63579636543629    0.03516868351750   -1.86185776395878
H           0.13431171045623    1.35437157700092   -0.74704769568257
H           0.79798586676585   -0.40876040706454   -1.43772129854270
N           2.80751995486512    0.44721639669214    0.37690802820970
H           2.38910138475153   -0.46222048712437    0.20355965942592
H           2.77839037909153    0.97636259183213   -0.48589039573252
H           1.96453794763041    1.17988494336813    1.43363815883302
H           3.77405978170761    0.31426369539269    0.64451025323688
