    26
        -50.45622826  Gyration_radius:  2.46196444993 Dipole_moment: 3.318
 S           1.13685837878523    0.23827734855638    1.74443391786699
O           0.94121675549449    0.01995043628214    3.13300700522742
O           1.16900059073450   -1.13124005402530    1.03406793184192
O           0.12264732657132    1.05713506210751    1.09596090519207
O           2.50696680765960    0.85284788371045    1.46232263192711
O          -1.97716665621997   -1.90199618089834   -0.31401543382452
H          -2.39407179893513   -2.75821192882732   -0.21135200574966
O          -0.23389226257867    1.45681352727204   -1.49945896038691
H          -0.12108537038306    1.51214096692154   -0.52978454736454
O          -1.66161778988937   -0.67033725451722    2.03394223571210
H          -1.85243650139568   -1.53795376358253    0.59430900643223
H          -1.17076312586568    0.10918935357974    1.71717886920952
H          -1.14923124109909   -0.97562925883272    2.78786799448366
O           0.41282491551876   -1.10029698379657   -1.37364464051907
H           0.91074959555896   -1.10992666514213    0.03381239482385
H          -0.43905026206644   -1.54281810481865   -1.20943025219909
H           0.17926866915480   -0.15270468633916   -1.55855928256953
O          -2.79599873618284    0.64217835857004   -1.11730781436743
H          -3.03689035214119    0.99618711259448   -0.25856433617878
H          -1.19815116753891    1.35377820586974   -1.61731149211941
H          -2.62335547273523   -0.30284282642757   -0.97585387549062
N           2.66686225871473    0.99618026820722   -1.08328172942667
H           2.64866654129915    0.04999190389191   -1.44532683573891
H           2.61385182146406    0.95441173391010    0.41604818040178
H           3.49736057681113    1.46347530231470   -1.42253322355777
H           1.84743647924717    1.48140024340055   -1.43652663362859
