    26
        -50.45622827  Gyration_radius:  2.46187699646 Dipole_moment: 3.318
 S           1.60812616989080   -0.65161919109317   -1.17323242076390
O           1.76747427574532   -1.39795787482304   -2.36974426696500
O           1.08009204420924   -1.59675587008671   -0.07363551200377
O           2.95102844833058   -0.15231404440193   -0.64244997870978
O           0.69942829768572    0.48221648711452   -1.26589790976479
O          -0.26313986238874    1.96308791679342    0.70924498110051
H           0.13120770417692    1.59641977991549   -0.10696994912752
O          -2.41014161251322   -1.33401774523634    0.20402060529668
H          -2.98934203681476   -2.09488623759089    0.25953699756243
O          -1.12627300999693   -1.23795417232727   -2.13501295322528
H          -0.56150539828129   -0.46599166155124   -1.95061928971429
H          -1.94068401077420   -1.39872298789580   -0.66119100618967
H          -0.51723671465515   -1.88982511661323   -2.49327277789472
O          -2.72798456517673    1.39633893857968   -0.27908356217064
H          -2.77607679247405    0.46392434869245   -0.01239129666741
H          -1.21282654691929    2.04249712325533    0.49470694431877
H          -2.60940921849273    1.39083148059366   -1.23129693030589
O          -0.30040955128155   -0.47744981227680    1.71807986551801
H           0.56003634619316   -1.13110459581093    0.68834146786225
H          -0.32040050205784    0.48315799101638    1.46648783794379
H          -1.15425697142115   -0.83534364098456    1.41574380007916
N           2.40989741938392    1.01076353389722    1.56659627489448
H           2.77751915480499    0.35925846983838    0.26574370232355
H           3.20043919483349    1.47031473758627    1.99907221979481
H           1.67730975067796    1.69569392322436    1.40571736398146
H           2.04712800730743    0.30943821018390    2.20150578282683
