    26
        -50.45514731  Gyration_radius:  2.45703054765 Dipole_moment: 5.613
 S          -0.38049603063286    1.75200448227835    0.81629329998813
O           0.84490757595848    2.43269894020572    1.43112272512308
O          -0.02684865200149    1.19311651931637   -0.46070140931655
O          -0.68494992364568    0.57918903971803    1.78920396825451
O          -1.49527333294739    2.64642197293828    0.82419479258151
O          -2.04897612466084   -1.43222598546974   -1.15035854236383
H          -2.79986410719898   -1.99119749023855   -1.35690768885796
O           2.02714484537082   -1.32917070253677   -0.93525948734455
H           2.46700770708338   -2.07835585165274   -1.33965109043916
O          -3.11961053210154    0.60109890217375    0.21279772996278
H          -3.19772570901887    0.29694265266939    1.12084413912748
H          -2.64966605707707    1.45245349267106    0.27554320020650
H          -2.42043950402154   -0.61158195394426   -0.74888091920413
O          -0.08750657520073   -1.65056727550001    0.73713756996657
H          -0.40721845834799   -0.32669912595358    1.39449896116144
H          -0.80039349968521   -1.70359991575592    0.07154883017690
H           0.73602244126296   -1.54817232650227    0.21765426723019
O           0.16559387651775   -0.43738148169620   -2.55199513650226
H          -0.63443291956753   -0.92338397481027   -2.30016165849305
H           0.10240697081550    0.37986216202028   -2.03077434859135
H           1.39636542783254   -0.97223258213992   -1.62211047835255
N           2.66882369287274    0.67376405948555    1.11214262221113
H           2.43002833341609    0.12503606372166    0.28767616561779
H           1.64067408994888    1.75657240997369    1.30655639788923
H           2.67912129996623    0.05580940338780    1.91339765342513
H           3.59530515506153    1.05959855563818    0.98618841654273
