    26
        -50.45183038  Gyration_radius:  2.44935653452 Dipole_moment: 5.219
 S          -1.10652217995951    0.39239390484618    1.10239900085927
O          -0.60772124615584    1.65028033349886    0.37966191732841
O          -2.43231975373007    0.59637204970806    1.58954405752424
O          -0.94476739689869   -0.74606558294293    0.22798949462447
O          -0.13325704254699    0.23391179061764    2.28681001415723
O          -1.50224304741604    0.25136876377764   -2.80534990714860
H          -1.83160005570234    0.99316620532191   -3.31636441018717
O           2.36287075688156   -1.10260594726916   -0.53322548132294
H           2.71432294149435   -1.69619346539450   -1.19875997004644
O          -3.41702270898807    0.04905433583011   -0.88613908800041
H          -3.18633961046348    0.36894747574654    0.00223899286598
H          -2.14754841084578    0.12512848494946   -2.07668366520236
H          -3.51683049106466   -0.90136845501866   -0.79251718016160
O           0.83342547885588   -2.40730594334183    1.19563755151974
H           0.06286326045766   -1.93913021834303    0.80632550937620
H           1.84385361775332   -1.66608869191355    0.09211088619075
H           0.86799089928139   -2.11439957190854    2.10905807900048
O           0.74497441937654    0.88071062836630   -1.56340209999242
H          -0.01182093156558    0.54922846963548   -2.10913452675549
H          -0.02153809670394    1.36653547149825   -0.44815201348994
H           1.24486286168514    0.09711424626783   -1.26154170569469
N           2.12338359162348    1.02789024564198    1.42223255690197
H           2.84167320274195    1.17441983868286    2.11885134453487
H           2.45676958622483    0.35913155724731    0.73195107572469
H           0.83290461624404    0.55433930455305    1.97428374966876
H           1.92963570939842    1.90316478988740    0.95217583774557
