    26
        -50.46489350  Gyration_radius:  2.55408976394 Dipole_moment: 4.640
 S          -0.17425840079615   -0.80689553243375   -0.02433595912570
O          -0.68625375351474   -1.87025347790008    0.94753654956805
O           0.02871958001674   -1.42793890091951   -1.31771315737986
O          -1.14467536579119    0.28565118424452   -0.09772817922190
O           1.11861580737505   -0.29978011562447    0.48957630801508
O           1.85473938417732   -0.60908955431450    3.04025883409515
H           2.27879210600641   -1.46876252951066    3.05645863746224
H           1.66860326952887   -0.41400522547362    2.09927414752640
O          -0.98029648988093   -0.47671642587223   -3.56095266706128
H          -1.84804576671421   -0.85178588897214   -3.71651311309044
H          -0.63316342012526   -0.92874418242757   -2.75847137492984
O          -1.65294544563561    1.52424524699886    2.17394908194263
H          -1.44431565983868    1.14617076230593    1.29140135513076
H          -2.59031880069677    1.72472511425906    2.16251566651778
O          -0.45771436384536    1.74270374803422   -2.17734277424973
H           0.93136650500601    1.22419400282926   -2.02247551691652
H          -0.78256541445758    1.14344850818039   -2.88254529429951
H          -0.83505743759296    1.35859177773296   -1.35219917848850
O          -0.82016926775167   -0.78821968527898    3.21906665189732
H           0.13672697311732   -0.67804943371125    3.40323296069097
H          -1.15405013792951    0.11388150705281    3.01593231222242
H          -0.78700894273643   -1.45941405237727    1.89417492138708
N           1.82349547051443    0.61918738557471   -1.79800906631535
H           2.69302148201850    1.13217519605197   -1.90451136463734
H           1.79364726544887   -0.20806289489902   -2.39216079852279
H           1.66311082409681    0.27274346644885   -0.78841895221472
