    26
        -50.45352264  Gyration_radius:  2.60009467391 Dipole_moment: 4.457
 S          -0.43310354508216    0.86775654812581    0.02168820879896
O          -0.82102963399369    0.64096715207479   -1.38146443336532
O          -1.14689498424327   -0.05887572585825    0.89677292034227
O           1.00693452628215    0.76912301372185    0.19295449751640
O          -0.87890746324986    2.30409105752514    0.35490380256498
O          -1.28735118536385   -2.53650248404556    0.21552934906106
H          -1.18590013401159   -1.61114412784201    0.57451717525538
H          -2.17026561562949   -2.82062241117335    0.46144694719334
O           1.78190530572357    0.64300064148834   -2.30714575856276
H           0.95694385986543    1.03078572459855   -2.61900947157024
H           1.69483776923661    0.68791216174462   -1.32922425018865
O           1.44737055878315   -1.88152694955513   -2.84207539988935
H           1.70783443057546   -0.93972701753517   -2.61845633510122
H           1.64943605181783   -2.00730809137652   -3.77103703966722
O          -0.97612681570398   -1.70043035422905   -2.15060123124360
H          -0.00022429332385   -1.87374424917658   -2.45873737509905
H          -1.10527682031404   -2.18334607973318   -1.24894240888025
H          -0.97834866045362   -0.67101830172822   -1.86614509231621
O           0.91761845962670    2.64121720670124    2.12401518338909
H          -0.23622913362471    2.60073330774973    1.07693042072203
H           0.52913086473972    2.06356386782370    2.82805812632322
H           1.44380175916871    2.04095748470411    1.57506054513023
N          -0.32690504976646    0.72492170331645    3.52983933867804
H          -1.12070834636751    0.91900159002552    4.12708186973297
H           0.21631477833606   -0.00871894968199    3.96737073768252
H          -0.68485667301666    0.35893329235916    2.64666967350069
