    26
        -50.45334087  Gyration_radius:  2.59324152469 Dipole_moment: 3.799
 S           0.97705836217760    1.07835121507312    0.29705734700192
O           1.08111064658937   -0.17430281863576    1.16485834733567
O           1.88568158883136    2.07186378862110    1.03159593326185
O           1.52963186815270    0.79386595987064   -1.00968009793723
O          -0.36545321294796    1.58197701749139    0.26744205741934
O          -1.84721784984833   -0.99598142610729   -1.69885786604167
H          -2.04940736443985   -1.55192117114346   -2.45287053121278
O          -2.35103011713164   -1.71250767257681    2.12436171036924
H          -3.14681987420608   -2.24592253924480    2.14170859287746
O          -0.64222329042123    1.19777043545002   -2.50191288104477
H          -1.01935971530638    1.85362578166605   -1.90673704610811
H           0.25211260930175    1.03688737479801   -2.14340645317266
H          -1.39959329303338   -0.18554700414566   -2.06178869156993
O          -2.81385274423765    0.38233661279668    0.55753101897365
H          -2.59638103723993   -0.85993725360067    1.68973389796025
H          -2.02590528206062    0.94753211262234    0.60052168932666
H          -2.73870374071903   -0.08256937979924   -0.28812878676573
O          -0.39450533358607   -2.00710094453464    0.36188272332829
H          -1.06288301410057   -2.03729474473279    1.09103690075888
H          -0.88026100080454   -1.67255332738933   -0.42182160229624
H           0.47696417061727   -0.97962874072671    0.81988388061580
N           3.95525601938631    0.66949339574585    0.46942854341050
H           2.81340502041688    1.65183804404542    0.93665116678583
H           3.98414378822651   -0.14945188499559    1.06234305835276
H           3.47742621822410    0.42600211662773   -0.39349639203818
H           4.90080660814379    0.96317505281757    0.26266350044959
