    26
        -50.45741768  Gyration_radius:  2.48312455911 Dipole_moment: 5.471
 S           0.01284295193040    0.98115081857439    1.30130711111433
O           1.23764345653469    0.75725197730479    0.50250761703545
O          -1.10382910244614    0.27205106548539    0.64685341430697
O           0.16571640829436    0.58056128903628    2.67299308924868
O          -0.28812134316835    2.48881971501480    1.24152414550640
O          -0.60390721430373   -2.29183089479218    0.84363867423985
H          -1.00195497312739   -1.38978970863525    0.80637094268212
O           0.24723223295374   -1.23191463082009   -2.67209647427225
H          -0.27127935255933   -2.00681129289079   -2.89729116534703
O           0.23973049513775   -1.97949769551159    3.32207076754274
H           1.13457542215341   -2.12764663954003    3.63212980349213
H           0.15338004580404   -1.00645399183814    3.20812189085895
H          -0.35349411444884   -2.40069551415460    1.79180071827428
O          -1.51184875374930    0.60458586715345   -1.86744834615900
H          -1.36328771021897    0.51137361422894   -0.88430964771660
H          -0.39359045456635   -0.51322805651608   -2.46015057641814
H          -2.45577524383912    0.49728610890963   -1.99587956153551
O           1.41558344180293   -1.53517988333930   -0.38605399150801
H           1.42692375293658   -0.54011906760072    0.00960725416875
H           0.59459262717814   -1.98848287904354    0.14613306758229
H           1.08253294013888   -1.43521130490375   -1.33681183390827
N           0.33554202491413    2.80577441461143   -1.23928640350084
H           0.53374738721947    3.67985728368169   -1.70686503224728
H          -0.32717490314713    2.27124684154512   -1.79149547418770
H           1.18762294081127    2.26347806489239   -1.15884235401813
H          -0.09340295222370    2.73342449911296    0.27147236478996
