    26
        -50.45741763  Gyration_radius:  2.48311685634 Dipole_moment: 5.473
 S          -0.58662230828082    1.35460220034483    0.69157416944471
O           0.14197584315875    1.40831416481557   -0.59479421339231
O           0.20440730352636    2.22024610471317    1.68758084549151
O          -1.92973147517986    1.85528879730638    0.58834443396851
O          -0.55906281273487   -0.03692813702383    1.18235573197484
O          -1.98559624778495   -1.46688953336369   -0.48543325602927
H          -1.54182009898512   -1.05931390516749    0.29593070218826
O           1.64972597961608   -2.09846811341016   -1.26311626122633
H           1.36624748594163   -3.01460570721710   -1.24450707721990
O           1.67637797102332   -1.29873583051386    1.28127735533276
H           1.75360023878037   -1.81427617879242   -0.32476250958605
H           0.81990737136418   -0.78534479066327    1.27028372690809
H           1.59660218476815   -1.91567057662827    2.01069742270487
O          -3.79448644455438    0.44526947980756   -0.64299796309444
H          -4.00765501768019    0.95294831968304   -1.42760587651652
H          -2.80635913065720   -0.93095915068423   -0.59744017068537
H          -3.20583525414821    1.01972407509815   -0.10379858838569
O          -0.27318110018672   -0.55090297546467   -2.03191193652331
H          -0.08899646346401    0.34928118762315   -1.48175165700385
H           0.53411910171002   -1.13561354088847   -1.85529048675011
H          -1.07200173195316   -1.00827215661390   -1.47028814601862
N           2.54779210449889    1.48600956222593    0.90456007763533
H           2.31721954822867    1.58054912004917   -0.07754488563848
H           3.42351806470671    1.95437276710988    1.09340336498737
H           1.17654250268427    1.99215042822857    1.48326688738949
H           2.64331238559786    0.49722437937774    1.11196831004251
