    26
        -50.45896422  Gyration_radius:  2.46126322658 Dipole_moment: 4.076
 S           0.68918103697675   -0.62588180340291    0.11663371218360
O           1.37537832585446   -1.38183548242308    1.29727610483432
O           0.41418317333057    0.73622972794946    0.62723636693673
O           1.59890688056347   -0.57791574978471   -1.00865928873026
O          -0.54882107034490   -1.32190939847966   -0.16850895021852
O          -2.74973239473094   -0.42011589414660    0.94859496633433
H          -2.09064007736738   -0.97241074986767    0.46999861038484
O          -1.69523215730741    1.23946800802376   -2.60827117611641
H          -1.25606124555797    1.92347337669913   -3.11643019397637
O          -0.83720042182248   -0.22539873742147    2.82041556536202
H          -0.38056266526116   -1.05986890383691    2.95061523933650
H          -0.30740003241495    0.25187343579049    2.15741878922633
H          -2.36267212533944   -0.34547058692971    1.84647046065048
O          -0.24256568253825   -0.91671936010113   -2.88844996877674
H          -1.17845224228937    0.39934450522672   -2.76423768909581
H           0.55550855999830   -0.77064797131420   -2.33957487186456
H          -0.73012772735866   -1.59214610839584   -2.40620141989701
O          -1.81224451719695    1.63127158432071   -0.09789562046246
H          -0.85239803676090    1.37993852940599    0.19498801380704
H          -1.83293249007395    1.50638595426216   -1.11845886725026
H          -2.37656706751817    0.82499866985416    0.33706326163859
N           3.46031135793272    0.12840693516896    0.98829515260843
H           3.16268392162323    0.10119740755047    0.01573883798214
H           3.27652396059631    1.05721088711776    1.34486928535900
H           2.26501813447445   -0.92359570996739    1.36603466185863
H           4.45591462253875   -0.04588256530961    1.03503901788792
