    26
        -50.45741765  Gyration_radius:  2.48308609649 Dipole_moment: 5.475
 S          -0.26907173760591   -0.32122583999075    1.57547755320561
O           0.70075747908951   -1.11522733172610    0.78965096231983
O           0.51690271227356    0.32658686478812    2.72857110318943
O          -0.78505014824084    0.76239830419405    0.71665862564534
O          -1.33214577884896   -1.12321597096856    2.11578213123577
O          -2.18941757719136   -0.36745231851036   -1.18411688748704
H          -1.82125800571935    0.21151856230741   -0.47503762875194
O           1.14320654121765    0.60623311264179   -2.65414603176048
H           0.59007308171250    0.97033666319185   -3.34797670157332
O          -3.22991274869048   -2.07009557263387    0.53981089007688
H          -3.09711923147185   -3.01937657613445    0.53968659244231
H          -2.62317058544060   -1.71480762243225    1.22744411506759
H          -2.75657284557156   -1.00936473269386   -0.69456422174898
O           0.01635157412613   -1.44468151750323   -1.55526666974330
H           0.34862989550778   -1.38326545896772   -0.53885854389303
H          -0.98713922543788   -1.05481243545326   -1.49674530730277
H           0.54168491382334   -0.73204131832309   -2.04609834557211
O           0.86610098945358    2.24994709652235   -0.57192612054186
H           1.12462675432040    1.25091092068320   -1.90844075124689
H           0.44111660729570    3.10563438284059   -0.65072462026884
H           0.23695451559768    1.68684755160982   -0.03872344496015
N           2.62412626455283    0.89053459214351    1.35570352971596
H           2.65391839545406   -0.01945890760020    0.91112579220859
H           2.35819858545097    1.57493875463288    0.65517788865742
H           1.38887246934922    0.61897920366405    2.28907102304949
H           3.53933710499048    1.12015959371396    1.71846508800390
