    26
        -50.45741750  Gyration_radius:  2.48306350864 Dipole_moment: 5.484
 S          -0.33794396755692    1.57848468375118   -0.23372239295585
O          -0.91958388707973    2.16496349686461   -1.40963590181833
O           1.02007695684486    1.04382121128422   -0.47578315564583
O          -0.20457074815779    2.65338010600320    0.85899289823222
O          -1.17571116097967    0.48949673280493    0.30498670348965
O           1.11667982072346   -2.60936308872632    0.81561285142443
H           0.58705050923645   -3.40636549800264    0.74998828081914
O          -1.45413868387039   -1.28131702778588   -1.60545687390404
H          -1.56206586087472   -0.66390504738583   -0.84348310389116
O          -1.75684863669267    0.63332992061867   -3.39346976754996
H          -1.15856429383175    0.82239804635697   -4.11813574669808
H          -1.68861089050747   -0.73163770940425   -2.39045928821803
H          -1.54797075353932    1.29299202311580   -2.69457677550277
O           1.01815761691200   -1.24875947065359   -1.38066529960659
H           1.09043425030198   -0.23646231043907   -1.03759670186345
H           1.18384313050972   -1.81634370954882   -0.55908569971554
H          -0.03630635506925   -1.35305638993654   -1.57922092840207
O          -0.31789499549073   -0.90614362629271    2.28394189233690
H          -0.65380957295331   -0.33381326268390    1.53774073720282
H          -1.09822025764342   -1.18065359948320    2.76844167667491
H           0.64212094165634   -2.00296075711752    1.43124703799439
N           1.52255002689990    1.38854997889664    2.29454986783843
H           2.11376089390952    1.78008115734369    3.01502556739467
H           0.45752130726279    2.24453866175278    1.51729584332224
H           2.08854931522995    1.12779400109391    1.49560283755989
H           1.07149528478926    0.55095147759268    2.64786542148622
