    26
        -50.45741768  Gyration_radius:  2.48319687867 Dipole_moment: 5.474
 S           0.90993491238593   -0.68558363801008    1.16549553990642
O           0.48643579200181   -0.77633558722969    2.64192935057914
O          -0.06589395517949   -1.48312306210398    0.39085922273705
O           0.79157869630241    0.72499695408621    0.74813876941552
O           2.25571326192359   -1.17001832292133    1.02604532019665
O           1.60267899251337    0.85892336178515   -1.73920154538556
H           1.40230291836683    1.00365024219182   -0.78403341677124
O          -2.16663608920429    0.95969017764026   -1.76248155747628
H          -2.01890611093657    1.70264410332722   -2.35086125386072
O          -1.52584181079889    1.83109908722038    0.67566633466788
H          -0.62779406661997    1.39930760232408    0.74141427582467
H          -1.37872441070005    2.75976867661953    0.86269598516190
H          -2.02279982573833    1.29101024919941   -0.84509935608761
O           3.58813336782446   -0.79834488637978   -1.22517593226022
H           3.69518312378523   -1.67650616414022   -1.59419295561745
H           2.44734389845476    0.34910208927686   -1.72902642790510
H           3.21882403706929   -0.92993327081937   -0.32320084159204
O          -0.25658817040200   -0.77117938912498   -1.96129730948097
H           0.57162852408548   -0.08181262476340   -1.99863713812032
H          -0.18659158730246   -1.16401833400048   -0.96740476987603
H          -1.08103975473528   -0.18384535695726   -1.95335973792331
N          -2.05149024294813   -0.61622909513355    2.22099518732694
H          -2.23914485890852    0.30302008317873    1.83419152660145
H          -0.52924009956166   -0.69970972082031    2.60460007648272
H          -2.78925897057030   -0.86580171823747    2.86550088564472
H          -2.02980757114517   -1.28077146622992    1.45643977782415
