    26
        -50.45896414  Gyration_radius:  2.4614926252 Dipole_moment: 4.076
 S           0.17825698779869    0.87477975860908   -0.28718346746049
O          -0.57140561661264    0.27644857335667    0.84040941583185
O           1.25976717026869    0.00322887826424   -0.69858089380073
O          -0.71797810555019    1.23401114738972   -1.36607007081924
O           0.83104776465136    2.17036195321232    0.28848359301103
O          -1.01242851319687   -2.84262936986897   -1.45239436119235
H          -1.95125416954283   -2.92111524782195   -1.62978700370798
O           2.06923795698185   -1.83471245583934    0.99684377430076
H           1.99842218694567   -1.22250487890515    0.22966505266772
O          -0.16334169688408   -0.84772610379296   -2.91444216274185
H          -0.67247415540832   -2.12346958655086   -2.05610014781661
H          -0.49577936665128   -0.03802049390760   -2.47463584858313
H           0.78474956099884   -0.82299397783825   -2.75029797125078
O           1.59056655722215    0.36359349673355    2.45882041049339
H           2.05648742198502    1.12897106916344    2.11385315340864
H           0.71333016391802    0.39135370957447    2.03725981505179
H           2.12563123428413   -1.22296699263962    1.76117255115033
O          -0.38603448047007   -2.22178282101047    0.93333259735796
H          -0.63332965818038   -2.54546044812765   -0.01090967384890
H           0.68754520919637   -2.22739605407953    1.00499631699578
H          -0.57850545358733   -1.20531903554924    0.93994002670582
N          -1.52987544876353    3.22975920956087    0.45274956568064
H          -2.04112470433155    2.82894245797196    1.22835821223329
H           0.03951289168440    2.76638210236346    0.44476535378730
H          -1.69475207510204    2.64827226267739   -0.36570877315882
H          -1.88627166163090    4.15999283703729    0.27546052569186
