    26
        -50.45741751  Gyration_radius:  2.48309128493 Dipole_moment: 5.483
 S           0.45456204009848    0.38067179125905    1.51936318139791
O           1.03735675599528   -0.50770884260804    2.48695568293383
O           0.18031266501308    1.74335871097968    2.17904982812219
O           1.34831548500967    0.63481840066393    0.36816419427249
O          -0.82803896111942   -0.13741925972804    1.00501079687038
O          -0.66029044726714   -0.03504507058016   -2.87820815638208
H          -1.23875388898786   -0.71146564980391   -3.23570939494833
O          -0.34274267324422   -2.49297960990422   -0.03354229280487
H          -0.71299775790343   -1.70321027295328    0.42757742921451
O           1.18010159451120   -1.08064886640740   -1.39367196256526
H           0.56815340795842   -1.80000566391115   -0.87358529364777
H           0.55851402638142   -0.65212130035874   -2.06795546326831
H           1.33976758202615   -0.32937864758644   -0.64701221613429
O           1.27549162011291   -3.08648624720235    1.96235495728368
H           2.21968541007061   -3.23638962845574    1.89301155072480
H           1.17393649275782   -2.16592515212177    2.29325207097173
H           0.20245475574745   -2.93709692674815    0.65842852292723
O          -2.02635684398822    1.11048795054085   -0.89413655602350
H          -1.56752059814403    0.65465286759366   -0.13329992472274
H          -1.18378416088629    0.45937276570387   -2.20476952742823
H          -2.96258381273321    0.95334227798598   -0.76075219241385
N          -0.03128756659543    3.08400842842661   -0.01215595816705
H          -0.84802588353104    2.73747825227691   -0.50478187153901
H           0.02073897605691    4.08836367396137   -0.11463738206507
H           0.05328983582018    2.37162243522509    1.38658723162787
H           0.78970194685329    2.65770359377409   -0.42553723421134
