    26
        -50.45741748  Gyration_radius:  2.4830848995 Dipole_moment: 5.484
 S           1.16188527413375   -0.90965643455251   -0.69509750006452
O           2.00617398153189   -0.44862744988983   -1.89587558197710
O           1.25561270862647    0.13041444851869    0.34773168602432
O          -0.24115114405855   -0.97709478188188   -1.15941739105516
O           1.65171891180308   -2.17717498573878   -0.22761171575917
O          -0.11985302673194   -0.72218559832198    2.40775982281183
H           0.53729022516556   -0.32507386287462    1.78813750156106
O          -2.22583424491925    1.84196291775162    0.61150848331199
H          -2.33890592562292    2.19056887181434    1.49790131547673
O          -1.88346877715034   -0.72028269312673    0.66038177886222
H          -1.22610607328093   -0.88896985212530   -0.16844987325740
H          -1.21332344821825   -0.77007817601625    1.50349353667855
H          -2.14351215624690    0.25573057832265    0.59423331395565
O           0.82069820107479   -3.16381578411717    2.07860940883768
H           0.18970909887646   -1.65258780367925    2.51668094409996
H           0.30446640262485   -3.93632998275929    1.84296282190925
H           1.25132286503909   -2.86528772496384    1.24635424443743
O           0.27030176110485    2.46098082350215   -0.09683326578211
H           0.80830355137715    3.07325845741575    0.40770163930707
H           0.67943148416091    1.56190241589356    0.04970535495804
H          -1.34013411190198    2.14187379417161    0.29928546473095
N           0.31328150931632    1.27742194721307   -2.78938808656308
H           1.43193389994139    0.27344158025441   -2.32907689095687
H           0.22615058039958    2.00939721857002   -2.09189516175483
H           0.29955678503037    1.69040572948694   -3.71198170029376
H          -0.47554833206620    0.64980635711894   -2.68682013950623
