    26
        -50.45334095  Gyration_radius:  2.59319231101 Dipole_moment: 3.809
 S           0.40121282787910    1.24562399703719    0.70247017414245
O           1.61071589668640    0.53196599849650    1.05110525959023
O           0.30100464645186    1.34225815471776   -0.81841075593664
O          -0.79183943018941    0.68641051175311    1.26894498561637
O           0.53393050778944    2.71434143213973    1.12429372089960
O          -2.67429713487338   -0.64708787501460   -2.32485212352341
H          -3.21376093812924   -1.32997723531379   -2.72581337894628
O          -0.38298443725860   -2.66893416572529    0.13167991789544
H          -0.02086024596038   -3.55115483813005    0.03709344327152
O          -2.68053422876316   -1.04955653086872    0.30111156131410
H          -2.06592993892878   -1.79725359372904    0.30796252929507
H          -2.18450735827737   -0.31703386113050    0.70055129887395
H          -2.83165093280182   -0.70362169780144   -1.35119112596703
O           0.54011388516340   -1.55113728992965    2.32455835461337
H           1.11583308038280   -0.86691050324959    1.93137993693562
H          -0.23020705341771   -1.06213838411430    2.63121958031957
H          -0.00468870184403   -2.30066477308037    0.97426656737338
O          -0.07159417934005   -0.87341634387494   -1.88281484742471
H          -0.12432823661759   -1.54025354068601   -1.16541645593825
H          -0.99958445554550   -0.76679178535574   -2.20964206259963
H           0.16915893447167    0.39947150816270   -1.29400009674834
N           2.83491203745841    2.87688538826604    0.00805392905011
H           2.95601090847641    1.90059167416726    0.26204841381910
H           3.65368722140006    3.40314131312177    0.28335499995362
H           2.72455307641121    2.93594995625994   -0.99564282432144
H           1.43563422939665    2.98929247385779    0.72768902847805
