    26
        -50.45741768  Gyration_radius:  2.48317896818 Dipole_moment: 5.471
 S          -0.62886588972136    1.40682671161846    0.53040993758341
O          -0.79809594983924    1.80550311705236    1.90072203339711
O          -1.00141270067316    2.58113289780052   -0.39131372780990
O           0.76844567895834    1.03107973206343    0.23988263942280
O          -1.50277374693232    0.27400120545607    0.15451258269342
O           0.71152213976905   -2.45022689800668   -1.48663285105482
H           1.54053290986487   -2.89922328815532   -1.31007832363459
O           1.39814150549570   -0.90859854014601    1.88401511354775
H           1.36953359817656   -0.11141421988902    1.30333314077871
O          -0.54051079372313   -1.92558483393785    0.71335953928210
H           0.30553118168652   -1.59841650676425    1.29636794476596
H          -1.03848978161010   -1.00418137150096    0.49038694979491
H          -0.14450647689331   -2.22924881176859   -0.16749547567781
O           0.14071447640957    0.30211444316710    3.86027759569140
H          -0.18425015584033    0.97163804003829    3.21731277064212
H          -0.63837443630458   -0.02477992950418    4.31302173230621
H           1.07988284904971   -0.57673625189007    2.75698605103524
O           1.36485393846020    0.06992526938042   -2.06653036137277
H           2.27035428527815    0.33595087403789   -2.23482869138730
H           0.94037945693896   -1.54120945677744   -1.79224279832681
H           1.12558641075336    0.47682221556153   -1.18648963397717
N          -1.32162042159521    1.17601880828780   -2.52841437802712
H          -1.80423819383197    1.45704156297975   -3.37106844266806
H          -1.85857702812946    0.46046265580362   -2.05266981687261
H          -0.41896479069826    0.78198947849486   -2.77290417815987
H          -1.13479807499839    2.13911311656458   -1.29991935198106
