    26
        -50.45896436  Gyration_radius:  2.46098403375 Dipole_moment: 4.071
 S           0.24164585639901    0.79801472333563    0.43201379275251
O           1.05850674290480    0.50518844909221    1.59098250057978
O           0.38752186373215    2.30981122086556    0.07197602262060
O           0.73154502249185    0.06110238008632   -0.75479085582632
O          -1.16981854165119    0.54707375843717    0.64008076336791
O          -2.56426096381141   -0.38338788717321   -1.38338135972830
H          -2.29507004918913   -0.00016488599528   -0.51778792767917
O          -0.70121079262714   -3.12827315680282    0.96249190709323
H           0.04915170031893   -3.69160993114176    1.15895880564189
O          -0.89237783076323    1.44571479861795   -2.41237397901997
H          -2.21951828805020    0.26930631892603   -2.02886603621650
H          -0.96032217024426    2.28679831962140   -1.95429514355529
H          -0.17357858482759    0.96924565118932   -1.96031037883390
O          -0.63532397395080   -1.19531529076500    2.72215545220279
H           0.10379837146431   -0.61444301785271    2.44684797369444
H          -1.42013728013205   -0.67311650376297    2.52763976383365
H          -0.71628575506895   -2.42462917916237    1.67102841068116
O          -0.64556260324170   -1.96232670519032   -1.29724627181168
H           0.02104863369899   -1.19247579679103   -1.11599494218213
H          -0.70684383656718   -2.49003829280559   -0.41670233520447
H          -1.56521711497280   -1.41487987754389   -1.40939765457800
N           2.96356199000399    2.03532066399619    0.18285026123521
H           1.38215021181866    2.43745855822340    0.05246071959896
H           3.29448273363149    1.53539511458086   -0.63214527628765
H           3.71208055258657    2.62089646412126    0.53015147903624
H           2.72003409601119    1.34933409390728    0.89365430858917
