    26
        -50.45741768  Gyration_radius:  2.48319137727 Dipole_moment: 5.471
 S           0.82629081091633    0.70440064275597    1.21575769521320
O           0.65527274744699    1.11620714779500   -0.19103706788319
O           0.17486981381400   -0.61134836617493    1.39743272935544
O           2.32998038515225    0.49459209538404    1.46475057357633
O           0.32776712796279    1.69923125159081    2.12520927453525
O          -1.08858949347566   -1.80895882619231   -2.06520578406516
H          -1.58020197220499   -1.45405414200067   -2.80848636660409
O          -1.90207793046134    1.54964909592354   -0.55760110841948
H          -0.91551796127160    1.56353407802356   -0.55184672370180
O          -2.08092879971849    2.73297853043967    1.79205242189824
H          -2.58852494626855    2.41813436746510    2.54174453564669
H          -1.14928592915590    2.47398083416912    1.97150839647929
H          -2.15092457226933    2.10356936205155    0.22000755759865
O           1.25191133359016   -0.52957205977779   -2.07115258713572
H           1.53644371299611    0.00993209549325   -2.81073827358616
H           1.05666654242997    0.11213286618864   -1.33138233216704
H          -0.18627438238217   -1.41386139415149   -2.10705126675141
O          -1.94926413600530   -0.82492117726597    0.16517478421382
H          -2.06513706857246    0.19854514519525   -0.15376289974649
H          -1.67611012621669   -1.32629596648596   -0.67074757205184
H          -1.06285919219721   -0.78189449696397    0.76469354578149
N           2.50030068691312   -1.78678429431141    0.27712534436782
H           3.24675196913141   -2.46243122739428    0.36810212903518
H           1.66080151181269   -2.14763779120373    0.71490062426653
H           2.52648786480955   -0.39454398430011    1.00702472670947
H           2.30215199324465   -1.63458379624659   -0.70647234659988
