    26
        -50.45896435  Gyration_radius:  2.46097750272 Dipole_moment: 4.072
 S          -0.56533084194197    0.56647768946398   -0.49108182836454
O           0.28803710468269   -0.16899911059231   -1.40172805955217
O          -0.57842019062770    2.04993379657327   -0.97624155237471
O          -1.92481615815711    0.07061500998948   -0.44402221251816
O           0.02790756201831    0.60049814236051    0.86476327787819
O           0.14714762868449   -3.28530200664023    0.62152579731787
H          -0.44723160652230   -3.61944875063867    1.29530226987751
O           2.80211636273610   -0.51843783820294   -0.72042737959651
H           1.95472337332954   -0.48235157497061   -1.21944965209135
O          -1.37419118650650   -2.37885576293124   -1.30212923316530
H          -0.75205358522391   -2.09195545738035   -1.97825601203997
H          -0.42849067742339   -2.99638979475035   -0.14172970320524
H          -1.75269799392750   -1.54064516544670   -0.96495875065128
O           2.17872140831706    1.98965257001679    0.00069387098138
H           1.41251071422418    1.61163877158030    0.46767046415350
H           2.95192002624378    0.41899475894619   -0.47486924833979
H           1.80446370915488    2.48826831138194   -0.72943544563009
O           1.59333971040549   -1.30761989297416    1.30413445140615
H           1.06522876971964   -2.15270487313600    1.05014603771245
H           2.24661958691346   -1.07675815433101    0.48108061757590
H           0.91728095055621   -0.52690514178546    1.24412417681403
N          -2.40450996541752    2.55911147525639    0.79274418909710
H          -1.99475141319613    2.58625518400037    1.71740741466298
H          -2.66735045809564    1.59636474678826    0.59474131808867
H          -3.23515982951573    3.13686484306163    0.78889332368795
H          -1.26501301044444    2.47169823432431   -0.37889813173526
