    26
        -50.45741768  Gyration_radius:  2.48319250949 Dipole_moment: 5.470
 S           0.20328771394893    0.82432130420143    1.39120136384331
O          -0.54393879663503    0.64947684824353    2.60627292760202
O           1.04715483642282   -0.34674081028701    1.06763839710302
O          -0.68118802419465    1.09084299615286    0.24017493655366
O           1.15073057144373    2.02691409121911    1.54456432903811
O          -2.33642971138261   -0.93137581744348    0.06051918227144
H          -1.89179488716465   -0.05061470445257    0.07151800468571
O           0.30360309638230   -1.38224954045813   -2.59215498889828
H          -0.46173277096777   -1.53861334851748   -3.14871480931927
O          -0.16303354543249   -2.11136604624508   -0.15634010509510
H          -1.16500865441040   -1.72246750548751   -0.06967917810810
H           0.09830710878992   -1.93848195850476   -1.11902416190473
H           0.40818136494650   -1.40958257711452    0.41624984801386
O          -2.61572625255497   -0.98860142509828    2.68193438159223
H          -2.34225770417973   -1.70267909372694    3.25994952965931
H          -1.91363055991782   -0.30347424360794    2.75212443744866
H          -2.64974396154709   -1.04954473647826    0.98858392120603
O           0.32644304797014    1.24229537205441   -2.11788930448521
H           0.38016347277144   -0.40537989283260   -2.48263794634642
H          -0.23191366384394    1.85260294407300   -2.60244051466349
H          -0.04704310669921    1.21525515064773   -1.19211992100966
N           2.71494663217299    1.40901816645767   -0.40889968690582
H           2.77085199120918    0.43415670617084   -0.13849591184551
H           2.17259597036547    1.46804232068967   -1.26457350074061
H           1.82196309653789    1.90054394141007    0.78820479070524
H           3.64521274595716    1.76770185892642   -0.57596604035386
