    26
        -50.45896424  Gyration_radius:  2.46130226425 Dipole_moment: 4.073
 S           0.72549659347521   -0.50694663166166    0.31096202013210
O           0.95567741471161   -1.80336992263414    1.14907225671826
O           0.44524216913047    0.55961639347164    1.25033406445478
O           1.89049117599087   -0.26138552453410   -0.51296327492782
O          -0.46154905317738   -0.78562264824761   -0.52859966914561
O          -2.07192652258711    1.11885324022984    1.75923015536849
H          -1.08921441291716    1.07605048654911    1.78768138772796
O          -0.39068150543813    3.00616055399315   -1.42144434266182
H          -0.20368084568436    3.06366966208187   -2.35991750389424
O           1.87164892136264    2.38048751087900   -0.26898755739090
H           1.66318138907300    2.37569756285686    0.67067045159883
H           2.02117257479783    1.43523033124510   -0.47794600624100
H           0.48347778571654    2.82975768942537   -0.97193685473079
O          -1.92153823447968   -1.55586689874365    1.61063064672638
H          -1.24115081723084   -1.90656825794457    2.19021548065438
H          -2.33631611312222    0.18555019925712    1.90280778563035
H          -1.48188156498081   -1.43284620512974    0.75063947267780
O          -2.01221489878261    1.17413769266304   -0.72591678688462
H          -2.17594749857404    1.26335001213975    0.33374185492661
H          -1.41590170588580    1.96142237216012   -1.01246945424065
H          -1.40594523673842    0.33664500914359   -0.76164355922663
N           1.66386763999481   -3.02476772909817   -1.02563522671442
H           1.25222785586408   -2.46509429725585    0.45590716593941
H           0.85202551545915   -3.22262339078845   -1.59606314835917
H           2.00092681014129   -2.09665437105536   -1.27105943081354
H           2.38251255400983   -3.70488284907081   -1.23730993743709
