    26
        -50.45896428  Gyration_radius:  2.46126709149 Dipole_moment: 4.072
 S          -0.22430076993855    0.90559213271493    0.09883099318802
O          -0.40567466432964    1.93248322588122    1.26021427092761
O          -1.43532079533404    0.11259251020742    0.04255496519207
O           0.05641941540623    1.62138470934896   -1.12801507328096
O           0.92961126303313    0.06547853437873    0.49175472753597
O          -1.45897917855755   -2.18728807829834    1.31427984852522
H          -1.72267876183818   -1.37760197824553    0.82103878092331
O          -0.06007232909861   -2.22640712438174   -2.49961899658778
H           0.66211834772296   -2.18283114724154   -3.12860483970725
O          -0.15246642866199   -0.47012215598969    2.90913909201035
H          -1.08571341298109   -1.82555352323008    2.14577733751502
H           0.40636170709910   -0.25967960453733    2.14011827197117
H          -0.66481545417710    0.32573325733584    3.07000522285362
O           0.61225202383871   -2.36139173212289   -0.05032651626459
H           0.86469550682957   -1.37825600484127    0.14950375802800
H          -0.28574546000865   -2.46497906455685    0.53321481522872
H           0.33913654858331   -2.38230026722405   -1.04155336683577
O          -1.35223639960872    0.03604142968770   -2.72231059699864
H          -0.78248866797047    0.70772944585607   -2.29368924234784
H          -0.59289676977925   -1.39132931756553   -2.62653560802365
H          -2.09287235039339   -0.05559887217089   -2.11444054792118
N           1.81312734264026    3.06449151536592    0.53996865850932
H           1.50907358586083    2.75596753741095   -0.38066161747730
H           2.11466627916995    4.02869793252944    0.48345312177857
H           0.40706774327026    2.51347911388958    1.17048478539813
H           2.60173167922287    2.49366751578999    0.81541776586617
