    26
        -50.45896428  Gyration_radius:  2.46114981549 Dipole_moment: 4.073
 S           0.13705130946778    0.90974983569587    0.18227045611953
O           1.54738157241688    1.22463569353618    0.09266681189141
O          -0.50774899598368    0.76841088647339   -1.10717796532493
O          -0.07895766368178   -0.30023174530804    1.00731412410318
O          -0.59773975836972    2.06282492588911    0.93523314738284
O          -2.39549751306239   -1.04438272934072   -1.34652745474980
H          -1.78735191622874   -0.28704589283520   -1.50465132002351
O           1.41829600509611   -2.28578184101749   -1.99088725229249
H           2.23797169420607   -2.67345847014694   -1.67976246812055
O          -2.75282550227814    0.08770038595630    1.05992625066360
H          -2.86909983480868   -0.77828340340943   -0.53019960532203
H          -1.81295547440946   -0.09972501659070    1.23170949016591
H          -2.80911504706810    1.04420694836436    0.99890283461624
O          -0.52895171158587   -2.35511687621265   -0.35611993631192
H          -1.39081321147765   -1.94460298006234   -0.85223044792047
H           0.23351421954245   -2.39286068673587   -1.04517126544792
H          -0.28571314086174   -1.58286474717106    0.28789887568940
O           1.91037164095553    0.25689431116266   -2.35091232425017
H           1.61906150719072   -1.32795154338650   -2.18995183020061
H           1.08612800340861    0.60811171277145   -2.70269535737114
H           1.96238115881417    0.64365775054264   -1.45244446571800
N           1.19556748172297    1.91944806967789    2.80279655212099
H           1.04322862660141    1.09608888868763    3.37069699504296
H           1.78876201509237    1.65480993350275    2.01968494224648
H          -0.03734764265352    2.18139803472882    1.75860072071370
H           1.67440217797116    2.61436854524321    3.36103049232918
