    26
        -50.45896430  Gyration_radius:  2.46103743475 Dipole_moment: 4.073
 S           0.23180745623794    0.63105975091631    0.65528846065455
O          -0.28735064677431    2.01083764360152    1.16802039313979
O           0.05750196831042    0.66560012057403   -0.81433064838375
O           1.63036057387878    0.49125338118662    1.00299787917879
O          -0.61573342503245   -0.38519182650355    1.24465022196862
O          -2.64753632032203   -1.26430866857602   -0.17146990731717
H          -2.01652088249019   -1.07563163448031    0.55975503280630
O           0.91353391610182   -3.13416569719178   -0.73792715774959
H           1.74028673408997   -3.23858576078590   -1.21172538622997
O          -2.53826757414432    1.38348103524256   -0.59308053780932
H          -2.96669783694237   -0.37152157793333   -0.42146570542373
H          -2.53148089886759    1.87641385396291    0.23075407557237
H          -1.59980740229174    1.25751473904544   -0.81993133141831
O           1.53256882535374   -2.09636034523037    1.58070477252528
H           0.69221005537900   -2.04540520473091    2.04726495486281
H           1.15217843218130   -2.79734685746921    0.17147925016032
H           1.75359724820199   -1.15958278833228    1.39862310069039
O          -0.75255392987831   -1.50879542585354   -1.76280446999168
H          -0.35438025511585   -0.59736739801093   -1.47822089705998
H          -0.11241594606810   -2.22111211032635   -1.38781524184706
H          -1.64824441882583   -1.53584626072652   -1.16754160806864
N           1.75902901984850    3.14086615561932    0.04583640553854
H           1.63491026456018    3.16869434069016   -0.95788878129075
H           0.40148128195481    2.65037388851682    0.81810271374659
H           2.20097446530411    2.25552597157988    0.28255014589554
H           2.37054929538218    3.89960066523387    0.31817425581869
