    26
        -50.45896430  Gyration_radius:  2.46104630777 Dipole_moment: 4.069
 S          -0.39936480265346    0.53813840169081    0.65707941717579
O          -0.96496801644274    0.37133820724161    2.10231120054971
O          -1.41665902188809    0.05437647154524   -0.25370146103553
O          -0.04405694730909    1.92542675202822    0.44379530282688
O           0.80172705861630   -0.32551405928861    0.60158308025502
O           0.78298731472874    0.35217752256363   -3.23487719512665
H           1.58337004806864    0.84183156364881   -3.43127763886166
O          -1.24313634087269   -2.43357362840867   -1.08256719827361
H          -1.55958904865140   -1.52207319017130   -0.88900634697206
O           1.03128059267488   -1.55519757977792   -1.57085074455149
H           0.07941892293770   -2.05040082820004   -1.49282136316838
H           0.94378425876582   -0.83401209588802   -2.29875917258925
H           1.06154229878021   -1.04332485621920   -0.67232276968081
O          -0.84060417039752    2.04824358060167   -2.08408986285439
H          -0.48665752942246    2.17885355178940   -1.18010224881457
H           0.13749694459364    1.01160705292863   -2.85293999600154
H          -1.64685106230324    1.54202064936443   -1.94212446637524
O          -0.57015508988472   -2.46713394965535    1.51470138716034
H          -1.09318287547995   -2.80772672421410   -0.18864548515274
H           0.06666506167263   -1.76046892588172    1.30712987806424
H          -1.23878811404505   -2.04735419993381    2.06108526758491
N           1.10377372645845    1.64784977807922    3.00473094353710
H          -0.26811416093921    0.82194423050075    2.66567677265615
H           1.02538263950938    2.12525008858033    2.10967240147749
H           1.23322384424541    2.33470031705409    3.73637306795053
H           1.92147446924204    1.05302185003016    2.96994723022747
