    26
        -50.45896422  Gyration_radius:  2.46134464338 Dipole_moment: 4.081
 S          -0.50675052266582   -0.08628370732014    0.78512929592108
O          -1.15590887533099   -1.23298519992107    1.62167769554338
O           0.78510697323660   -0.62911896816706    0.30751224089137
O          -1.39223131828648    0.17643196511474   -0.33085000216801
O          -0.29534087442280    1.06326996926044    1.63960903162876
O          -0.87687066413121   -1.01576635440206   -2.61513740285781
H          -1.30731764986240   -0.50944790747519   -1.88922483691209
O           0.98436707184371    2.53649115896308   -1.95198181149792
H           1.73785344004505    3.04234742552745   -1.64319094850537
O          -0.39905633354143   -2.83763424533265   -0.70391438934101
H          -1.14969944288508   -2.94001160604306   -0.11411051802547
H          -0.75262288711520   -1.90408443381247   -2.21890005307796
H           0.16715829122668   -2.16927597310513   -0.27893827784440
O           1.31486193449846    0.01669777143805   -2.05591867533132
H           1.20339936974046    1.03852544116932   -2.08678155584144
H           1.21942208839559   -0.24477887587764   -1.05947224585296
H           0.42107004382800   -0.41787502590071   -2.46806803295047
O          -0.90473272907334    2.89578229002180   -0.17999083419342
H          -0.63782946259675    2.36753664512978    0.60053497379250
H           0.24080803845944    2.72222901124722   -1.31175962805367
H          -1.65651240981201    2.41168434320918   -0.53630037329545
N           0.67797972840794   -0.89236846453828    3.42287106909177
H           1.55999564629012   -1.27157087633914    3.10373580646602
H           0.66592086749724   -0.90639338951761    4.43452277298137
H           0.61635598743608    0.07134150393938    3.10243756391226
H          -0.55942631125150   -1.28474250716712    2.42650913544646
