    26
        -50.45896435  Gyration_radius:  2.46111941763 Dipole_moment: 4.072
 S          -0.50584305979808    0.00029277781445   -0.79056153321138
O          -0.28444669143794    0.30344850716231   -2.30560430416613
O          -1.65353882130400   -0.87001702011204   -0.64352834059810
O           0.72944050419197   -0.67984018088745   -0.33986013727648
O          -0.65721978772111    1.27629568491240   -0.12167110644522
O          -0.66597544722029   -0.24443928138438    3.27132338677853
H          -0.83025697057217   -1.12657526107780    3.60879700234944
O           1.47354353369504    2.34452991313912    0.98544884553000
H           0.57121368672324    2.19701536335386    0.62152287642547
O           1.48044791075098    0.04791684156360    1.93839773044659
H           1.21615803240423   -0.36523666799477    1.02752048050283
H           1.56608594952612    1.08752270340270    1.67470798332965
H           0.65141175974302   -0.04985855625689    2.53897777314454
O          -2.59048570670260    0.25023329574868    1.57149570791068
H          -2.38491687485097   -0.28653100700823    0.77831147545535
H          -1.43316188980736   -0.02722074115190    2.67006329792063
H          -2.42409231651073    1.15373788382005    1.28435022760157
O           2.29661530035829    1.28266330573874   -1.33716780286742
H           1.76827634276274    1.59240426957503   -2.07658940609031
H           2.05020956879066    2.20689146506189    0.20440700778355
H           1.87081462226186    0.45498280037175   -1.05162769984453
N          -0.43345111728360   -2.24052820269343   -2.78487090934104
H          -1.07311239265000   -2.21026090602454   -1.99423697739241
H          -0.30039376079734   -0.61053902607847   -2.71845522513521
H           0.41428946452179   -2.70257546180900   -2.48246436864937
H          -0.85161182904227   -2.78431251917810   -3.52868598418513
