    26
        -50.45896431  Gyration_radius:  2.46106143484 Dipole_moment: 4.071
 S           0.01443941358983    0.47376191083822   -0.81132193368839
O          -1.04668681580223   -0.00450097456767    0.10355163077507
O           1.23651337613620    0.73696673303220   -0.07934327777116
O           0.18853618546005   -0.44267775011349   -1.91856954769754
O          -0.49394832083635    1.84476673013672   -1.35723011666910
O           1.06310696921034    1.07062419416542    2.52172814589462
H           1.38484766629067    1.04237938259632    1.59224080890851
O           1.49569661673233   -2.74691843068597    1.19572846549407
H           1.12307908471125   -3.58802803776694    0.92627646415142
O           2.38062128985817   -1.61308426948101   -0.98814210122215
H           1.89128045525718   -2.33969819521265    0.37421059288777
H           1.58359706148791   -1.30902837934895   -1.46955419580349
H           2.78619905255709   -0.79615448415459   -0.68060318265447
O          -0.14684926518334   -1.07512481179156    2.18406418436061
H          -0.61230335277189   -0.71523687635896    1.33315573684542
H           0.53079164123710   -1.77506517083311    1.85513168840060
H           0.40983899366236   -0.20840013290871    2.49484754158759
O          -1.06287512447895    2.32572357789489    1.47128140332816
H           0.31169165761270    1.69892704245857    2.47455595534965
H          -0.80588764275114    2.95011173855761    0.78871254763597
H          -1.25428519673012    1.49724705234751    0.99683237803554
N          -2.32644326631649    0.57846550990611   -2.68438186933664
H          -2.72496508981005    0.69738434453368   -3.60680661180183
H          -1.60608824230606   -0.13901977152544   -2.72268589813412
H          -1.26772469219511    1.57842054792552   -1.93727636104427
H          -3.05218244462814    0.25815852036115   -2.05640244781712
