    26
        -50.45896428  Gyration_radius:  2.46128586483 Dipole_moment: 4.074
 S          -0.05670480680617    0.02250896231475    0.93666635840966
O          -0.88436976469808   -0.55170076980775   -0.14823352273547
O           1.33446294872608    0.08323678772944    0.53732499752360
O          -0.59077527807428    1.29661634006577    1.36982852413230
O          -0.14863848317504   -0.99783482446988    2.11420251212990
O           0.63147620156449    2.22858117498325   -2.41792013494288
H          -0.09491648520173    2.79972673240411   -2.67314581825685
O           2.10553367573220   -1.43552439100155   -1.46415201403915
H           2.09120742282543   -0.83459034279406   -0.68500411388444
O           1.16556115322171    2.80668118094615    0.07575249113217
H           0.87984763031570    2.49056704203059   -1.48680849407824
H           0.43734003894215    2.41299805707040    0.59945229425268
H           1.92385987531505    2.25319316448548    0.28813176252340
O           0.40489603319272   -2.92279378613506   -0.01695167894425
H           1.67360116070046   -2.24708134549876   -1.12293678147406
H           0.65719546673945   -2.95194871485946    0.90896261496458
H          -0.22210213912947   -2.18088367957245   -0.08450960797656
O           0.13179604658534   -0.26533016630710   -2.42191285446330
H           1.04179918176988   -0.78463006494593   -2.17702936238124
H          -0.39867924218084   -0.37138839023697   -1.54010140262546
H           0.35772583905976    0.73548120616841   -2.49178173569435
N          -2.63375659801055   -0.33049844960356    2.43328643559566
H          -2.28808184249523    0.57027971444071    2.11032928379858
H          -3.20038035981066   -0.72954141415570    1.69618152435021
H          -1.10239664118006   -0.90722708382716    2.41140448734225
H          -3.21550103391612   -0.18889697939132    3.24896425530730
