    26
        -50.45741765  Gyration_radius:  2.48311561237 Dipole_moment: 5.470
 S          -0.99209043799160    0.77108322387942    1.03860621403304
O          -0.53387252818884    1.15261981670362   -0.31140429355212
O          -2.42311357849862    0.65418579591965    1.10089667018380
O          -0.30094292933586   -0.47736779259507    1.42853271901146
O          -0.52704068417742    1.86198563157421    2.01886941624789
O          -1.41611706279741   -0.67673411309832   -1.96574118907047
H          -1.13326343411552    0.15094058592612   -1.50910796396075
O           2.24171966145253   -1.35622313866929   -1.36146855016088
H           2.25872862353610   -1.41970141971570   -2.31838132488339
O          -3.73313355921260   -0.75526100484127   -0.70978175646689
H          -3.36243736848322   -0.15020894959945   -0.02876446475904
H          -2.36245794558088   -0.77861565583815   -1.70579317881726
H          -4.08392680035833   -1.50633622218331   -0.22853435563027
O          -0.05916589450576   -2.07823361003190   -0.43030822651864
H          -0.17496714285439   -1.45285984369255    0.43117729209156
H          -0.68077948626858   -1.58607804128598   -1.16112461964750
H           0.88861571108746   -1.91556475764336   -0.74682397547667
O           1.98354012949577    1.24151406950923   -0.81526084872181
H           1.00925604310100    1.23672889557994   -0.59615889206128
H           2.23918745768821   -0.39533815383628   -1.14062952359784
H           2.09235048414016    1.91635677942140   -1.48740480164224
N           1.93873111417893    1.11780025523001    2.12379111890463
H           0.46996209122945    1.67940606629496    2.12439740937000
H           1.70317581624261    0.13753583561417    2.22495257337809
H           2.33820627072770    1.25224568263691    1.20068954241083
H           2.61983542950519    1.37612007475702    2.82477500933889
