    26
        -50.45741750  Gyration_radius:  2.48308471515 Dipole_moment: 5.485
 S           1.17709845671317   -0.02584401921856    1.12863351061550
O           1.27014963934762    0.97745633263303    2.29139730121057
O          -0.17798519862867   -0.61024331318467    1.14487398323669
O           1.33309505540415    0.75134057177773   -0.12050021854675
O           2.19184610100785   -1.03124870636727    1.28536895429701
O          -0.27626446646390   -2.37367330391927   -0.78995830360471
H          -0.36116922265998   -1.86018748677100    0.04823293014237
O          -2.06828581285730    0.72636402045791   -1.97876793578134
H          -2.73911449453157    0.09074461272060   -2.23571852400125
O          -2.20918321107479    0.89236181017166    0.67974788509542
H          -2.93508624261963    0.51292825595584    1.17784517128408
H          -1.41411888321325    0.32693782512315    0.89283193973255
H          -2.16851291952096    0.86836711484528   -1.00830750295946
O           2.15503007342814   -3.21199927979849   -0.20641837986269
H           2.22929597612434   -2.48166857435427    0.44805940009255
H           0.55638528033161   -2.88875529077488   -0.66867901133280
H           2.92495206031902   -3.13486908213096   -0.77220370858575
O           0.29068303229198   -0.32725988421546   -2.07624665821496
H           0.80742038925715    0.17057236862673   -1.28085945655305
H           0.05104179802437   -1.28221543007125   -1.63699437739643
H          -0.59749539567790    0.15233865418986   -2.15241980428654
N          -0.07404959153623    2.85941520129643    1.15342627775873
H           0.41529754410954    2.76148528243127    0.27159600989312
H          -0.09704958272463    3.83386001383997    1.42149748939218
H          -1.02303944210781    2.52305731280229    1.02610608072849
H           0.73905906726535    1.78073501392997    1.95745694765321
