    26
        -50.45334066  Gyration_radius:  2.59274137536 Dipole_moment: 3.803
 S           0.52936742646334    1.31112421641966    0.45956307486323
O          -0.08916469464478    1.42378705160503   -0.82949569089296
O           1.50974880079442    0.14070784055201    0.50445110004560
O           1.43990193175138    2.52117473192952    0.70285057065869
O          -0.40753527262849    1.18375398230758    1.55481655060885
O          -2.16153509696526   -1.47569435165381   -0.66332195887305
H          -2.86299732482925   -2.06847420359894   -0.38963069565913
O           1.20367166413722   -2.29394085508215   -2.50083779728315
H           0.96481838334720   -3.02727614484835   -3.06940904654899
O          -2.67470212969201    0.96433016867833    0.16904173612509
H          -2.35904456094218    1.49177932534505   -0.57168005386243
H          -2.41075244304332   -0.57397017083719   -0.32630737070557
H          -1.97534388958220    1.05913894567585    0.84434932063505
O           0.40950019529635   -2.03436803523089    0.01374835394689
H           0.81197336937841   -2.24893027507507   -0.86447739144384
H           1.05115972830177   -0.80227432663943    0.32443896114048
H          -0.53601804951272   -1.85140520788714   -0.17208617705350
O          -0.64978074073191   -0.41224823435510   -2.78719619668947
H           0.61202048177545   -1.54337891946303   -2.75094593068774
H          -1.33600497212075   -0.84039470362762   -2.25550756785524
H          -0.36622092295646    0.35066946792341   -2.25828278637248
N           1.91738112681693    1.73971544799134    3.09604627785537
H           1.77204080168930    2.37299823857711    1.65882958590273
H           2.07106450802029    2.27998500083595    3.93723966679643
H           0.97109690904269    1.36986771918894    3.09667651167178
H           2.56535477081071    0.96332330130591    3.07712694366728
