    26
        -50.46147053  Gyration_radius:  2.59185951479 Dipole_moment: 4.227
 S          -0.27270651808955    0.59719310738560   -0.35488058603360
O           0.64832493893134    1.52234467342749   -1.03736507850407
O          -1.61803430876232    1.10626143447550   -0.23919042005309
O          -0.28722873444344   -0.66849306006225   -1.28861666955995
O           0.30481105282151    0.16382165314845    0.90968612426522
O          -3.17021600234823   -2.17832167451572    1.06153845773777
H          -4.05173347746954   -2.29359677632206    1.41951053034110
H          -2.76038070644263   -1.43883891564516    1.57220362127691
O           2.64098603847120    2.40598248236811    0.55684590853423
H           2.28373022220025    2.91999125825230    1.28249961312373
H           1.88669652938617    2.21884284822931   -0.03697195416952
O          -2.07884779289973   -0.00694753034454    2.15507650074016
H          -1.12048716006200   -0.14398167605037    2.14249814204475
H          -2.20667023011670    0.59277666846071    1.40116266746182
O          -2.79568801356216   -1.04974938954814   -1.33345531351045
H          -2.98436712229811   -1.59363846538830   -0.53307571113393
H          -2.84483684149752   -0.12705566974908   -1.04017373312614
H          -1.25879563023241   -0.93867799564190   -1.38332669159728
O           2.89431745793283   -0.25313268442170    0.85293101579125
H           2.75000397004371   -0.38308531746768   -0.62652950298545
H           3.12058732101508    0.69653597137536    0.92819572079391
H           1.92897924456735   -0.25996963214313    1.05583881277123
N           2.37703851897785   -0.27208574268306   -1.65728519330918
H           3.11343903796642   -0.09835639998739   -2.33374523374152
H           1.69694106994049    0.55757235514029   -1.56180956848541
H           1.80413713598185   -1.07539151230417   -1.91156146867553
