    26
        -50.45741763  Gyration_radius:  2.48311865183 Dipole_moment: 5.479
 S           0.25404225900876    1.43543290779299    0.73071314243442
O           1.64808983302702    2.04127484465765    0.96880660361220
O           0.19359215756682    0.18093141553202    1.51247138012880
O          -0.75065426164995    2.38349867206192    1.12683776466227
O           0.14896970218424    1.09469823790616   -0.70139193478886
O           0.10813822493359   -2.78251930926784   -0.98307183934039
H          -0.36332366122413   -3.03460106035007   -1.77942420430304
O          -2.26280309308323    0.14867452004553   -1.08930281535265
H          -1.38700080022734    0.60010320886686   -1.14132876152963
O          -3.28633665624269    1.99096143599973    0.49584019800415
H          -2.37269035910152    2.27557564023552    0.72268518091239
H          -2.83907509339738    0.80282742608869   -0.62741276750678
H          -3.72486977772642    1.82940352751587    1.33272425435323
O          -1.42381299746649   -1.44873893841860    0.61608474704342
H          -0.83842661914512   -2.07531531172512    0.07795089485826
H          -0.74273644790467   -0.76915272485329    1.08696387837302
H          -1.90604269867960   -0.82423371121337   -0.11838428852877
O           1.66460731225729   -0.73272078407230   -1.68249412279514
H           0.75539589059639   -2.08625898586041   -1.24454774538255
H           1.80729949532539   -0.49026236139520   -2.59892988239369
H           1.10594280414310   -0.00073490658656   -1.29600969032289
N           2.94085566791463   -0.18779394231771    0.91135592146021
H           2.26791125051160    1.23249877947929    0.94385436439150
H           2.27201065743219   -0.66213888421680    1.50659726276957
H           2.85393313512559   -0.56776944024099   -0.02560102094354
H           3.87698407581993   -0.35364028564848    1.25501346016744
