    26
        -50.45469719  Gyration_radius:  2.50984269893 Dipole_moment: 5.580
 S           0.01506551648705    1.91996803165016    1.09862698514849
O           1.01859673619132    0.88897416214142    0.89496046276684
O          -0.16820111419051    2.34298701826004    2.44162024069893
O           0.34339846186981    3.10502536420041    0.18625256844969
O          -1.33600613180842    1.39004310018279    0.56747352125126
O          -1.33000938470816   -2.19432881212860    0.92870276164855
H          -2.06660239843512   -2.66104294073267    1.32594888008847
O           1.49260728986028   -0.56717558103453   -1.27927768010123
H           1.53698945788627   -0.05661122572453   -0.44753557736488
O          -0.31746333543863   -0.51512839245304    2.72840647196731
H          -0.98959178820493   -1.58008060058618    1.62383020783379
H           0.41083587861176   -0.16819991231866    2.18656769712999
H          -0.71808659668721    0.27214768313692    3.11015509064965
O          -1.14587964849674   -0.43789396746634   -1.16903709445069
H          -1.36579998640946   -1.16668387562705   -0.56156256092121
H          -1.26076596508293    0.68436999745511   -0.17860063531125
H          -0.17051539744521   -0.52485996176019   -1.33129613067243
O           1.02990162063108   -3.06374022039065   -0.26970845971683
H           0.83077482617436   -3.86949995199730   -0.74797054158566
H           1.57928051600096   -1.49837270197794   -1.00521398391310
H           0.23190273799778   -2.83012568859262    0.23471370573451
N           0.48077869542028    2.07566318138080   -2.15526563120951
H           0.80919050453816    2.70147110997805   -2.87884626871811
H           0.43616251456418    2.73659609635339   -0.79194169321824
H          -0.44516217129823    1.74590894154259   -2.40007692797050
H           1.09859916183159    1.27058913648174   -2.11092541817646
