    26
        -50.45469733  Gyration_radius:  2.5100940636 Dipole_moment: 5.580
 S           1.74439708256676    0.79547451292823    1.10481007008022
O           1.66889414024565   -0.72767686192225    0.85326023413187
O           0.66885634020728    1.43157314239165    0.36335239722784
O           1.45949111553518    0.94764489140970    2.60152645029821
O           3.05580410506245    1.23645351531440    0.78552147616651
O           0.25231723398132   -1.23166763690312   -2.42200580378165
H           0.65515528051299   -1.82341831652621   -3.05899783278844
O          -1.89484581143952    0.73829141809925    0.22163109007951
H          -1.03353808268396    1.19868148113538    0.24581582394849
O          -0.61076437805681   -1.57215549882686    0.15801150477756
H           0.72979381476770   -1.08175740927025    0.62308892070138
H          -1.19730013279307   -0.77310684606195    0.20916898514443
H          -0.39214114106558   -1.66354193646257   -0.78670552943599
O           1.99281006868407    0.69337731740150   -1.83214728987533
H           0.93012681555699   -0.53980268832190   -2.22617517618375
H           1.42618617018475    1.19949997484994   -1.22620662922583
H           2.83095833057345    0.62565716126132   -1.36432428147365
O          -2.09731244368888    0.26411032267314   -2.46148745016320
H          -1.25472729194439   -0.21341418364743   -2.55050120710550
H          -2.76025012330169   -0.25388450534906   -2.91950274166371
H          -2.16013029277605    0.75479153583703   -0.71605526768620
N          -0.88677691455294   -0.03673113855350    2.89772506960081
H          -1.29023092752834    0.08922048548853    3.81666725236588
H           0.49328327600199    0.57952490914263    2.77999094455476
H          -0.83175447798994   -1.02769387010963    2.69521815300624
H          -1.49830176606143    0.39055021400591    2.20832083729379
