    26
        -50.45469716  Gyration_radius:  2.51004177059 Dipole_moment: 5.579
 S           0.38244905858883   -0.70642009653518    2.06170370317126
O           0.07890332123196   -1.39612828041098    0.81929580947443
O           0.19117931942832    0.80988559608574    1.83101909347621
O          -0.39839545753367   -1.08910828425480    3.18421106254226
O           1.87810707157778   -0.86132049301659    2.35042737542330
O          -2.33131930362379    1.23044506301269   -0.70375632995624
H          -3.06320666976945    1.83781152683410   -0.58663358314348
O           0.88789297527792   -0.82329339399529   -1.64865229392828
H           0.59097872920956   -1.24314450933858   -0.81803982020458
O          -1.53154099494082   -0.37385544598444   -2.83579249077581
H          -1.91492892190432    0.14273439196742   -2.10635472812033
H          -1.71350667804501    0.10793773548679   -3.64356452996003
H           0.11113037807089   -0.85656147534597   -2.23637132621106
O          -2.44022664664003   -0.61101646736917    1.21502452758347
H          -2.30904316506721   -0.50161720574685    2.16205783310685
H          -2.40453088507115    0.57109383917535    0.02857143628193
H          -1.67526107991925   -1.13909532277564    0.93164353417082
O           0.38991452623912    1.54390558417240   -0.58069990559693
H          -0.56816425449198    1.64080536057002   -0.72673104166374
H           0.32583962417332    1.11880653263907    0.85821944634325
H           0.64144298312327    0.71876917703743   -1.07159657348284
N           3.02236963213407    0.00742400427101    0.23004577180548
H           2.59694320898885   -0.45122113815481   -0.57025957403664
H           2.40116068007998   -0.54065853764889    1.49875881339081
H           4.02313578740642   -0.13547133610293    0.19611517361712
H           2.82867676149113    0.99929316546114    0.16135861670091
