    26
        -50.45469737  Gyration_radius:  2.51014865181 Dipole_moment: 5.578
 S           0.42414601304401   -2.11175581292936    0.50678063550253
O           0.24841323619685   -0.91635032304897    1.31389151655633
O           0.03441277694333   -1.77211806393937   -0.94977402064984
O           1.91927377537059   -2.43400302850144    0.43444541616624
O          -0.32505522803598   -3.24613719454538    0.91665526647303
O          -2.46067466141809    0.82553058948177   -0.84196728459135
H          -3.27359348869099    0.76530838407063   -1.34568026899319
O           1.03446114154402    1.57214020129436    0.80126270819023
H           0.77721149271494    0.71892915160053    1.20152391085302
O          -1.39169319856491    2.82778701143569    0.77252697042337
H           0.28499690696787    2.16847140567804    0.98202780104973
H          -1.61214304528767    3.66886688341305    0.37048840383681
H          -1.86172870764500    2.14183833135896    0.26803838135823
O           0.18729858021718    0.68194816406550   -1.53979696499812
H           0.14786175480783   -0.78188839470330   -1.20791142466260
H          -0.77102037933176    0.84895076194436   -1.49208104001313
H           0.56268852046466    1.10946482777637   -0.72646067753154
O          -2.36363736465517   -1.21734776303847    0.86130005731041
H          -2.46090398925206    0.04942736227533   -0.23037690287991
H          -2.27328341817729   -2.15649709689489    0.67216108474026
H          -1.52622333186875   -0.98405083309319    1.29567631130950
N           2.98480906644389   -0.27722783426877   -0.44572889315599
H           2.41420185674751   -1.57143957054086    0.09976206038007
H           2.64809876860668    0.49592800943485    0.12053530387073
H           3.99623978016859   -0.26878611203273   -0.44387377391722
H           2.65584315272444   -0.13698903632540   -1.39342457659965
