    26
        -50.45334099  Gyration_radius:  2.59334467241 Dipole_moment: 3.808
 S           0.85268800242006    0.98868683330653    0.70718729727874
O           1.99888227250836    1.64679460162011    1.48551152547451
O           1.58770984563349    0.01267346680118   -0.20931491391098
O          -0.01441499473244    0.29755389772417    1.61674380781307
O           0.18515358293532    1.98459989707790   -0.10297005940970
O          -2.48602996443410   -0.76245648095445   -0.72427517995422
H          -3.19854103465969   -0.72150215747176   -1.36388522874705
O           0.15491459887165   -3.59695999408169   -0.12166383961154
H          -0.33746296505842   -4.39489355528304   -0.31911033460614
O          -2.34058720838517    1.50307313340950    0.60101019494701
H          -2.48233824127407    0.11370870387786   -0.25410108933673
H          -2.11407080197318    1.19591084871565    1.48469497895493
H          -1.49894053606688    1.84876766523199    0.24557904674504
O          -1.34427550840515   -2.09600262593008    1.47750445511330
H          -0.33389351352481   -3.14074602667059    0.60558110106991
H          -0.81010380392539   -1.32279372646970    1.72036699257102
H          -1.95390958671447   -1.77227987908549    0.79899370844085
O           0.02586566059178   -1.37401992714150   -1.55795431861298
H           0.16844656484820   -2.26356324096146   -1.14843428395521
H          -0.88734469495998   -1.11712149249339   -1.30857951326525
H           0.93562799224780   -0.57073145488050   -0.81501078501279
N           2.86122020435571    2.77774549483884   -0.64613661362405
H           3.33865744522643    2.09923199842328   -1.22468835574027
H           1.88920980433042    2.82346725409996   -0.93835423361603
H           2.50826905460663    2.15783165785733    0.76062678675659
H           3.29526784548185    3.68302511847022   -0.76932111575932
