    26
        -50.45469735  Gyration_radius:  2.51010015064 Dipole_moment: 5.579
 S          -1.29254834575647    0.03790639320324   -1.79526857580732
O          -0.78716868955010    1.02588632373158   -2.85029315278681
O          -1.35635481318102    0.72246750354342   -0.51519493955285
O          -2.49360039593648   -0.59138561501979   -2.21675051628338
O          -0.18403481718867   -1.03597460923883   -1.71335400575422
O           0.04152058823366   -2.12261986036029    1.71428507531796
H           0.05375721982360   -3.05171102289385    1.94846689999313
O           0.63411287227891    1.69292385479634    0.95780065158081
H          -0.21205054865273    1.50435261151437    0.50745851264150
O           1.58535131534012   -0.59649750894342    0.03873369891942
H           0.56643252242716   -0.83188158917409   -1.03864456058411
H           1.34922031128614    0.29234495164509    0.41210335852128
H           1.23971850864955   -1.23985770261848    0.68307391402058
O           0.30184780386556    0.20364645786203    3.22403662967125
H           0.13318114433891   -0.64182881638518    2.77388231327306
H           0.94534460482126    0.02893715055148    3.91185733362910
H           0.49624565919283    1.40491000668878    1.87865533462144
O          -2.25002251724019   -1.59057233183173    0.46947920248714
H          -2.55330559512730   -1.89638684291196   -0.39104918515810
H          -0.81776094884620   -1.96963289530518    1.25100204263325
H          -2.11045048153162   -0.63716094926150    0.34357623340796
N           1.42392267478100    1.89283175134720   -1.89063482568114
H           2.07239313613329    1.11517596307819   -1.86359250799391
H           0.11254156242325    1.43463511361582   -2.49729863104275
H           1.25727227472018    2.19532478551560   -0.93537812872346
H           1.84443497472803    2.65416688682277   -2.40695218132241
