    26
        -50.45469731  Gyration_radius:  2.51008490376 Dipole_moment: 5.580
 S           0.48614750399298    1.27889181717463    1.73921794035006
O           1.93093533529711    1.78437817872401    1.69835616095485
O          -0.18445962588810    1.93584761445701    0.51140934743635
O           0.49474374586040   -0.15981518419834    1.53577860589980
O          -0.18180187835370    1.73059162248995    2.90799708639286
O          -2.56755505651631   -0.41231432996953   -0.82811386508386
H          -3.46551900287482   -0.15237656705519   -1.03866160789415
O           1.19930032400042   -1.53310664491056   -0.63008891652259
H           1.01530688251003   -1.20900798346367    0.27293610550708
O          -0.11678991245701    0.54527651695406   -1.59949252834486
H          -1.04318150696270    0.24936771240045   -1.54613371782060
H          -0.11075824265143    1.39546429561811   -0.36188889352425
H           0.42141376132118   -0.25174898891373   -1.35409675177899
O          -2.15927348440384   -0.02492555205508    1.77311719832438
H          -1.24802292712820   -0.36022846569608    1.81313224717175
H          -2.12334904898506    0.80386861059017    2.26065827684704
H          -2.45598696054478   -0.24716818559892    0.13973524036511
O          -1.16420822270615   -2.79491501699495   -1.16548205513691
H          -1.45031050277692   -3.18230444695147   -1.99365782659500
H           0.51084049349734   -2.20169724059341   -0.80014645491934
H          -1.73693377237105   -2.02636717021715   -1.00057039756643
N           2.82835546094735    0.94038311922985   -0.54745685251057
H           2.31609305746511    1.41574875220670   -1.28069367620004
H           2.36068915565351    1.44552202327928    0.80301048040262
H           2.62520389767800   -0.05249874440857   -0.61633156217815
H           3.81912051639134    1.08313426791127   -0.69253360363401
