    26
        -50.45469723  Gyration_radius:  2.50995031399 Dipole_moment: 5.578
 S          -2.12217831445170   -0.08197709999155    0.61902265896795
O          -1.79727776665012    0.36681996461028   -0.82390242739544
O          -0.87223987788270   -0.19432027615337    1.35144948795771
O          -3.07481288388149    0.81962936842262    1.16291022473062
O          -2.71767100542039   -1.48311859108732    0.45607711156453
O           1.39634476459348   -1.36596472371732    0.60797370270376
H           0.62824066657432   -0.99594305307040    1.08498790626381
O           1.21685405011200    2.33702978172035   -0.70986692759035
H           1.27738711743130    3.18704859620430   -1.14805722976628
O           0.55032779110861   -0.17123065213994   -1.59386579157943
H          -0.86052289825392    0.10066759799998   -1.15837207519310
H           0.89355652683762    0.73376310394040   -1.48502126676246
H           0.94547060779990   -0.68694595829730   -0.84351179084695
O          -0.71223465400829    2.45929684004881    1.11939818535231
H          -0.61213769254285    1.55999715783185    1.47361472943611
H           0.48870488902417    2.42306567342119   -0.04736926105357
H          -1.66090903274433    2.55293423459422    0.98834914597856
O           3.07168035038861    0.79120957094807    0.68022843969382
H           2.12939072439594   -0.75421948107665    0.80362636372573
H           3.91915439648755    0.89778726233354    0.24632349882940
H           2.45840177939268    1.41813722266137    0.25983701706824
N          -0.84618667379317   -2.83725565744864   -0.65026349286500
H          -0.70113095282760   -2.45813033534801   -1.57828157839669
H           0.00609482024553   -2.69426324545240   -0.11642181631004
H          -1.98048628376618   -2.09378961479295    0.02565023965192
H          -1.02382045818676   -3.83022769618924   -0.72451507416347
