    26
        -50.45469727  Gyration_radius:  2.50997303596 Dipole_moment: 5.578
 S          -1.65062732262675    0.68903661031417    1.30203634086103
O          -1.13777207941759    1.38453019486779    2.56612031745526
O          -1.19595499837558    1.60931551591952    0.14666081957050
O          -0.96378139920687   -0.58414940782225    1.16523986536573
O          -3.06916187081479    0.62686185244190    1.29137492387065
O          -0.35509580053347   -0.48474448705469   -2.66187142186472
H          -0.68866543505465   -0.30266296404563   -3.54152702723456
O           1.61340363648769   -1.04610779198936    0.69854852805909
H           0.67845842414301   -1.06889936207038    0.98094915714142
O          -2.42180657641106   -0.92362378172438   -1.04329535440622
H          -3.09916954366220   -0.30622161839645   -0.75006604431972
H          -1.15011855942533   -0.63430686861971   -2.09444324763636
H          -1.91588627149762   -1.11717039334290   -0.23650154291832
O           1.41812711947462   -2.39158053490230   -1.67148193361236
H           2.09737131161309   -2.52504439611411   -2.33372375297806
H           1.67665295575811   -1.71398047782128   -0.00840696297035
H           0.74588731578557   -1.81227032342658   -2.06940266460818
O           1.05103067942626    1.02029549809929   -0.85196501081059
H          -0.25772495579158    1.40505124808845   -0.22515553600263
H           1.38496256139991    0.27449329039819   -0.28850415041163
H           0.68948082817694    0.59147449739109   -1.64821126534530
N           1.40265707991728    1.46987156155820    2.24891561970091
H           1.72276083866352    0.53703025307996    2.00572713791934
H           1.59336526642945    2.08029375832343    1.46339293240880
H          -0.09123373236023    1.42671239676380    2.50278151282424
H           1.92284054790902    1.79579572998756    3.05280878997279
