    26
        -50.45469710  Gyration_radius:  2.50988038738 Dipole_moment: 5.574
 S          -0.45486034265387    2.14600211126809   -0.28337827328512
O           0.30893993597969    1.40500518077022   -1.40413645111012
O          -1.85523742607035    2.36899855108267   -0.86139135144200
O          -0.56365501207180    1.25354422160667    0.85813675921934
O           0.20052551957647    3.38142434394231   -0.03768621231504
O          -1.28563515901772   -1.30559124985554    0.91111454679608
H          -1.11238615629647   -0.36174422285405    1.09420386775018
O           2.55916235593380   -0.93335719727415    0.15845440604310
H           3.48043462784218   -0.98939550350910   -0.09910489069348
O           0.21755666752276   -1.11732446873989   -1.25583192738614
H           1.11656516310078   -1.22192798977781   -0.89599015198785
H          -0.38763847250352   -1.29931841531055   -0.49047576879495
H           0.22784948227877    0.37879962632723   -1.37691855369309
O           0.99713938326911   -2.40368836431833    1.93658626257940
H           1.29115600926786   -3.31439486666368    1.89516719231478
H           1.61825686117591   -1.88181746710642    1.40027585475935
H          -0.64342478666494   -1.78838930338418    1.46259955327667
O           2.08188879453929    1.51655160370766    1.08213583247289
H           2.42379406281066   -0.01152697465527    0.48768650151654
H           2.08753157013021    2.35174447787894    0.60409631336430
H           1.14770404412945    1.38689867760251    1.31651129459974
N          -2.72843233436300    0.00509720486737   -1.32107251932486
H          -2.59751309522432   -0.54959520007046   -0.48027915143903
H          -3.69957910926238   -0.04536426278834   -1.59926893851353
H          -2.27538035550948    1.42588111765662   -1.04847953836813
H          -2.15476221792931   -0.39651163038388   -2.05295465633799
