    26
        -50.45469721  Gyration_radius:  2.51025605254 Dipole_moment: 5.574
 S           0.26192042913549    2.17173377745784   -0.33201180606138
O          -0.32569506604354    3.16836804266710   -1.15522098161502
O          -0.66398977024382    1.39774321287669    0.47738164905130
O           1.04555524870799    1.19412083049143   -1.23689019077622
O           1.32692719867334    2.77334262462832    0.58906993102067
O          -1.08355445443284   -1.63860821810957   -1.89447706071164
H          -1.21023114121506   -1.97426878270261   -2.78302747701224
O          -0.21443908007995   -0.83135281242823    1.85660307676515
H          -0.52943843264694    0.02609023044233    1.51029080592929
O           1.15463803011684   -1.18161250490830   -0.37844112876315
H           1.13766287996431    0.23912573300462   -0.86292534672241
H           0.71055757412577   -1.14604431034336    0.50842444051626
H           0.47726024079569   -1.53110192328801   -0.98483709933966
O          -1.96415470281098   -2.51228056752714    0.60018390839615
H          -1.96144622103860   -3.47018762927642    0.58822074303364
H          -0.93266377370292   -1.45949837405111    1.65809955385914
H          -1.76489160882419   -2.21796578696607   -0.30507187435188
O          -1.94091382861862    0.87925971840735   -1.80711520022511
H          -1.77219324148684    1.04106424795367   -0.86387303404079
H          -1.57648669654161    1.65492044978772   -2.24470969384709
H          -1.40691666488826   -0.70491298360169   -1.90714212312403
N           2.28684426053607    0.75555862688047    1.84129388328056
H           2.76572496152241    0.17413456904183    1.16407314599586
H           2.92688395149286    0.98302421226782    2.59074948311817
H           1.74132883491354    1.98900940069463    1.14985917625075
H           1.51171106258121    0.22033821661656    2.22149320934732
