    26
        -50.45469710  Gyration_radius:  2.51009968583 Dipole_moment: 5.572
 S           1.48822515139416    1.15173514951298    1.16380664152116
O           2.48672936850990    0.86618523054557    2.13211058726973
O           1.92920046055533    0.53839350694703   -0.18451404459659
O           0.15522268465918    0.66155502259636    1.47091982135907
O           1.40123958828815    2.65523436137191    0.88686128742294
O          -1.97635983128649    0.51618439413760   -0.11293773601655
H          -1.34586382873568    0.59774649441031    0.62880014589903
O           0.30778091102566   -2.66081258109544   -0.52204037003641
H           0.79784001196040   -3.44546827933643   -0.77182664589262
O          -2.39951706603008   -2.18289073522979   -0.07006813418139
H          -2.89530428100691   -2.71603867523143   -0.69263605446206
H          -1.46577771313465   -2.43979616006427   -0.15905249806799
H          -2.36893751030846   -0.36989174766606   -0.01015211536562
O           1.30214486242377   -1.72953926170277    1.76421547099812
H           2.16951204927757   -1.34860581183195    1.93280784124868
H           0.69160697739745   -0.98196619598440    1.87693021554524
H           0.71074240276065   -2.34532296743479    0.32326888939377
O           0.02893748718310   -0.19297393344145   -1.68348266452623
H           0.11873637308155   -1.14339263786979   -1.49031357769390
H          -0.79115093347697    0.08997263805229   -1.20121445858313
H           1.15714291797683    0.29010417456188   -0.81906834969946
N          -0.36234935295483    2.85215651980821   -0.96053317796235
H           0.01358166483029    2.41056760001513   -1.79101539298178
H          -0.63955715693080    3.79801148852742   -1.18766122249445
H          -1.18362593731615    2.32877312564525   -0.67179314104777
H           0.66980069984877    2.80007927079574    0.14858868292639
