    26
        -50.45469707  Gyration_radius:  2.50984913605 Dipole_moment: 5.573
 S          -0.48772718559846    2.12116470638252    0.39558772579302
O           0.08184911029173    1.43355250150006   -0.75071846306231
O           0.63926860900277    2.84502145639140    1.13739037167980
O          -1.56332057358343    3.00347422706352    0.11133219990244
O          -0.98503298371566    1.05600430509220    1.39906675619014
O          -1.92952753590991   -1.86938292911757   -0.47817852800230
H          -2.76788289220846   -2.30929449920670   -0.33041905461009
O           1.78477130319633   -0.60873076192957   -0.79421961534929
H           1.26003747786818    0.19660065219964   -0.96877675852883
O          -2.40735910377095    0.62608254246803   -1.27046381188933
H          -1.48394388864110    0.90010537013184   -1.39932853016954
H          -2.15113206436041   -0.94920483516003   -0.76216163759677
H          -2.79744056206842    1.35169684129139   -0.77301310130514
O           0.14007084919088   -1.19875186477725    1.19029798984044
H           0.83539582829177   -1.06587072888234    0.49458656449773
H          -0.49078372095844    0.15396312564674    1.35198681972521
H          -0.60029678936635   -1.62954646420432    0.72668335105884
O           0.25418933562386   -2.45306406712587   -2.10679759555436
H           1.44931338475137   -1.26729496865645   -1.42940635684900
H           0.35424804128003   -3.40548704778279   -2.12695640391753
H          -0.57251832773783   -2.26598061059996   -1.62995178175924
N           2.35317968833172    1.00490500911203    1.62506531632977
H           1.92804994555724    0.35421108704828    2.27459699840574
H           2.53851627290166    0.50728845470970    0.75914421330570
H           1.38796601959465    2.13928014641729    1.34375131647603
H           3.23010976206038    1.32925837205260    2.01090198535892
