    26
        -50.45469734  Gyration_radius:  2.50998679735 Dipole_moment: 5.578
 S          -1.01598966897735    0.63674373788704    1.85937074537964
O          -0.18873026362325    0.31798712552732    3.10778066076007
O          -0.16886291704296    1.67850732091724    1.09387670919608
O          -1.10348437082457   -0.56355719909722    1.04512003383985
O          -2.25550580207677    1.23655394137515    2.20574011102015
O          -0.61059304849106    1.07870688533484   -2.43074484251594
H          -0.81749396720533    1.78855498300379   -3.04025414625326
O           0.83629275099286   -1.85133369981104   -0.23995911541522
H           0.03465655959436   -1.58157472133336    0.24892720327677
O          -2.56689835190745    0.90425727665721   -0.63469415030841
H          -2.81340407545692    1.53277054607760    0.05098320222699
H          -1.35401859786380    1.05269710457577   -1.78028191451576
H          -2.22163274992665    0.14191809807656   -0.14075508683582
O           1.41308300087373    0.70095287244652   -0.61942892762199
H           1.31633878046692   -0.28125561321025   -0.51417832481250
H           0.86425823095395    0.92638923257417   -1.39177914938196
H           0.51451360954075    1.27982974522480    0.43490761373764
O          -0.08245567867419   -1.63068579327649   -2.80342782420837
H          -0.35869194682585   -0.70035934205179   -2.73919647018547
H           0.41575348716994   -1.71729382008718   -3.61698633056699
H           0.52514292625954   -2.04039411339740   -1.14404891345527
N           2.01031465234745   -0.61501014989669    2.18305441324449
H           0.72232098146855   -0.09343699379087    2.78867182103175
H           2.63934508999762   -0.99442224761051    2.87834324065456
H           1.78705457277588   -1.34186549916919    1.50952040762980
H           2.47868678646907    0.13532030303632    1.68943905407056
