    26
        -50.45334089  Gyration_radius:  2.59310045058 Dipole_moment: 3.807
 S           0.46179816364989    1.23518753478263    0.68363535276346
O           1.55803410024004    0.35263783143838    0.09037967156653
O           1.25695949027855    2.22676617592538    1.54234368462002
O          -0.20163124497493    1.94742528107446   -0.38704351426676
O          -0.42394345657191    0.47622099441767    1.51811713560219
O          -2.06619672295921   -1.39445974280587   -1.03584817862941
H          -2.61801950907977   -1.59536768709736   -1.79317971451381
O           0.90121846359325   -3.45262224596005    0.49090418356216
H           0.63402239086557   -4.36011711586582    0.33866700678068
O          -2.66970599237104    0.98373870500560   -0.09256917229719
H          -1.85869397714168    1.46962941526022   -0.33826159525227
H          -2.34086417429175   -0.49187787791543   -0.72175201453975
H          -2.58153448321983    0.84364208090421    0.85566680417753
O          -1.17734140885126   -2.16010205635459    1.52395489680396
H          -0.87644496310020   -1.26130278778790    1.73320072951768
H          -1.67987813204918   -2.06767892991412    0.70190975859220
H           0.18628931731862   -3.03889547405849    1.03277899818763
O           0.63668777929431   -1.50299817025105   -1.28396404871773
H          -0.34139156975104   -1.43649536567068   -1.25154768475213
H           1.18350005947800   -0.43110841738417   -0.52434256943674
H           0.86488152520953   -2.28178745517218   -0.71765514789716
N           2.31328758007535    3.26430064411127   -0.54928868136947
H           3.02927942937905    2.64858506436325   -0.91168563118447
H           1.43765322646827    3.05177611000353   -1.01873949078523
H           1.79734444922779    2.75154720152324    0.85061189564401
H           2.57468965929374    4.22335628743318   -0.73629268419251
