    26
        -50.45469733  Gyration_radius:  2.51010568454 Dipole_moment: 5.578
 S           1.59368795792647    1.31332371290162    0.79380198133296
O           2.51343780254453    2.25661721603773    0.26419149991108
O           0.16803170830298    1.89372036998896    0.65476625337500
O           1.61145423958942   -0.00005510261475    0.17252284109161
O           1.78761496362938    1.13992909578520    2.30276144848332
O          -0.12790252783364   -1.99424040830636    0.43838882093681
H           0.65719488843005   -1.42701916421854    0.31084068588326
O          -1.28397129895531    0.53161518597658   -2.34840541625157
H          -1.71686345257105    1.09092202839605   -2.99488454596755
O          -1.65098160622263    0.16516172169688    0.34392306480743
H          -1.75194660825413    0.30743650605515   -0.61428323328943
H          -1.18210076447023   -0.70577700495657    0.42562141703556
H          -0.58012508086281    1.18996443176861    0.58247807276819
O          -0.96200338773769   -2.22870685531557   -2.15312606278563
H          -0.34001150715506   -2.33023821011059   -0.45153894600825
H          -1.76551060024658   -2.63576208878410   -2.47934796603737
H          -1.03708826956049   -1.27513682804512   -2.32896875798481
O           1.25850446631384    1.28944779772673   -2.13628953611424
H           1.53977361237993    0.61983446636227   -1.49063870277817
H          -0.34956219106767    0.84875997234445   -2.29591462066479
H           1.61414872012452    2.11259466463339   -1.78695476659448
N          -0.06499552143404   -0.48991520773599    2.99024485865700
H          -0.95265353985206   -0.02325320442736    2.84755577670783
H          -0.01438367084266   -0.81536333417025    3.94661369806488
H          -0.02861489832936   -1.29147865339273    2.36735613916532
H           1.06486655610341    0.45761888247777    2.63928599620737
