    26
        -50.45469736  Gyration_radius:  2.51032649871 Dipole_moment: 5.581
 S          -0.33091441360615   -1.23539261280514   -1.80569240600115
O           0.83587503565904   -0.98564371218982   -0.97652781294293
O          -0.60416807002808   -2.59995093030908   -2.08763251907161
O          -1.56428061686954   -0.62882759312459   -1.09856924771139
O          -0.19410733377955   -0.42129594141819   -3.09523242941868
O           1.58638698642674    1.27419231832212    0.20778901951608
H           1.53003989702990    0.40639414686884   -0.23732467789525
O          -0.94862352727730   -0.72863896485217    2.45371887018055
H          -1.59880632395129   -1.07010166390114    3.06923258930395
O          -1.03738514593916    1.22838450953186    0.53485915412437
H          -1.35798268328956    0.16306516471006   -0.47400877791039
H          -1.13850465035813    0.68166013785965    1.33448406859327
H          -0.05933633093814    1.36944380816469    0.44282877171086
O           1.54225661067871    0.46425078899348    2.81664544692947
H           0.70885454980327   -0.03395619814485    2.76056801365488
H           1.82635322037385    1.06654889054195    1.12931291703278
H           1.48786235998650    1.00979898162445    3.60214943541776
O          -0.26991534666768   -2.67377542834533    0.76868538971949
H           0.39654315611320   -2.17961852432257    0.26278956911463
H          -0.73024143517706   -1.47610320211436    1.84542000606682
H          -0.80564583560645   -3.10007022378665    0.09250081272104
N           0.15664815833498    1.98344838246788   -2.28687607897411
H           0.89971782526894    1.97931978405777   -1.59429221865109
H           0.38877314621773    2.64824746404997   -3.01296718827681
H          -0.02301825247412    0.57816243707209   -2.82337960427376
H          -0.69638094992091    2.28045820103707   -1.82848110308265
