    26
        -50.45469728  Gyration_radius:  2.51018889305 Dipole_moment: 5.574
 S          -0.57252073720535    1.95917377793017   -0.85411599117686
O          -1.07178274981740    0.60900112812978   -1.05181403967218
O           0.72339892075200    1.87655904346475   -0.01580735754334
O          -0.29254290845917    2.69070874855587   -2.03843766738399
O          -1.55715432862076    2.71511080138552    0.04248569678629
O          -1.35928229032110   -1.34114712589831    0.73341810350800
H          -1.42873401767692   -0.72208214765650   -0.01915181000813
O           2.29286655020440   -1.28845840704227   -0.72828064548368
H           3.22483920455179   -1.34860013425772   -0.94293920236081
O           0.93681067555255   -0.20995699335370    1.39647938551958
H           1.56822016848979   -0.65827100873447    0.80569414618432
H           0.78743016375890    1.05440819295239    0.60084368886557
H           0.07752395761479   -0.68855016953568    1.26361317235798
O           0.31164514869288   -3.21051381403815   -0.35266604715858
H          -0.98648421387050   -2.15668047157789    0.35156922608432
H           1.02891211410634   -2.59452194538890   -0.58056783027084
H           0.71778070019062   -3.96212095171074    0.08074780134960
O           1.09539923467619    0.22573771553814   -2.56029244190600
H           1.88915128207725   -0.71586589387232   -1.42520510066588
H           0.18924231698911    0.15332292345375   -2.21681829933333
H           1.20537618468444    1.16647383159522   -2.72978189525236
N          -1.76705332387110    1.24145533716943    2.12733681883500
H          -0.86806080790649    1.24037114736812    2.59406321879850
H          -1.70166898827659    2.14173162405178    0.90924944559795
H          -1.96443561800861    0.29195232244600    1.82525673256969
H          -2.47887663832505    1.53076248911560    2.78512089175328
