    26
        -50.45469726  Gyration_radius:  2.5100464019 Dipole_moment: 5.578
 S           0.32526510927553   -0.36603801038828    2.15721646619529
O           1.56400005316826   -0.24410057265274    1.24075151274612
O           0.54824700003980    0.42316003873846    3.31638733394057
O          -0.85130392444778   -0.02107799589043    1.37761720535748
O           0.25687208138582   -1.85501244153921    2.50750611671401
O           0.85480083141879    2.28063610507767   -1.23190872857482
H           1.47614867083217    2.98426616122605   -1.42439779900859
O          -1.53650179812454   -0.84012713892915   -1.05802029764026
H          -1.50497424824797   -0.53027690291362   -0.13206694857403
O           1.07356587677361   -0.45247900447929   -1.23113718337460
H           1.37494244406235   -0.38261185228970    0.23821098405400
H           0.10500215104916   -0.66452652230416   -1.27492889107185
H           1.13079894332124    0.50163096695395   -1.41839663183893
O          -1.59485323506463    1.56626154165556   -2.35057964739076
H          -1.80883470250118   -0.05877522380335   -1.57298637287663
H          -0.78095979688272    1.92162347156811   -1.95420953200825
H          -1.54219012020376    1.73484302263572   -3.29216595372016
O           0.13638760042054    2.45693995450863    1.32476628179994
H           0.62042350773742    2.37770526992851   -0.27690479882892
H          -0.49609891092639    1.71923308474541    1.33229038146739
H           0.67061877968139    2.31291568534147    2.11205920839820
N          -0.01256977908827   -3.02161460223462    0.24340128398723
H          -0.77322745264137   -2.57072994943940   -0.25651253389206
H          -0.19677957909196   -4.01486884022310    0.29404886760066
H           0.83997335092711   -2.87084371254975   -0.28234838434009
H           0.12124712715082   -2.38613253266354    1.61230806088171
