    26
        -50.45469723  Gyration_radius:  2.51021097003 Dipole_moment: 5.575
 S           2.07119931425944    0.66582578942117    0.40348593765138
O           3.18965107302242    1.08371915009151   -0.36495576114046
O           2.37515499665731    0.73202787822568    1.90274246640086
O           0.83210052570036    1.38188908964985    0.15198046144548
O           1.82562240643491   -0.83514584503922    0.12804888503444
O          -1.63325117343708    0.78316268837043    0.95053057348864
H          -0.80183604080964    1.21284768922709    0.67045508323376
O          -0.73646030225996   -1.08571543021644   -2.39269546031035
H          -0.63090203535617   -1.65105174841156   -3.15916922389551
O          -2.84682261062036    0.48696605205471   -1.47947053434366
H          -2.22797447719210    0.86691261480388    0.18295701062844
H          -2.12562587493239   -0.01209338506848   -1.89979354362257
H          -3.66037171031645    0.02333329012341   -1.68144227322964
O          -0.59070748936704   -1.55913621027018    0.30377422830306
H          -0.74604900058748   -1.59782800496610   -0.65699576085306
H           0.85102754947237   -1.14310251134134    0.25232824112433
H          -1.07210321661207   -0.74640354296125    0.60840824214002
O           1.19769922661163    0.74234325583101   -2.41236534702250
H           2.14500990209062    0.61777191668662   -2.29838094993563
H           0.00090887781961   -0.42921714523745   -2.43456086376165
H           0.92704865514212    1.22633683620726   -1.61444136863645
N           0.25828900560809   -0.18646213189420    3.01463957965753
H           0.17995539023659   -1.16469815088516    2.76379483412305
H           1.52611357418713    0.38761969714202    2.41446272524676
H          -0.54207168691993    0.30231873468130    2.62435349364113
H           0.23439510116852   -0.10222058622831    4.02230933464025
