    26
        -50.45469734  Gyration_radius:  2.51017308553 Dipole_moment: 5.580
 S          -0.73322665553960    0.47491311744092    2.03315707323432
O           0.08416163188366    1.20603921061441    1.07996483195914
O          -0.22339551314163    0.40876554744503    3.35672450583049
O          -2.14644129547298    1.06407369808935    2.01432445186563
O          -0.91254765418850   -0.96783561660095    1.50855674866300
O           2.00488495486647   -1.79891812006616   -0.43871835470401
H           2.48026714124464   -2.62043584880086   -0.30715539723494
O          -0.13118631989404    1.30585466681976   -1.56898333709500
H           0.02586449023473    1.47654835059123   -0.61999948415515
O           2.07421993324977   -0.40583523828381    1.82789425478752
H           1.59469867307857    0.37862226951435    1.51323177526231
H           1.65989170083104   -0.60831323216205    2.67238082118302
H           2.04869324800773   -1.31781775311279    0.42330448926070
O          -0.61952795368055   -1.22740107735840   -0.98949208969813
H           0.27622500747763   -1.60655127538457   -0.93970118540384
H          -0.84736429059739   -1.06690654795901    0.48573464732191
H          -0.48763883896688   -0.30129568589662   -1.32118943684567
O           2.30228594142336    0.27984451460260   -2.26912628720333
H           0.75660455347230    1.17386660026565   -1.94885601620806
H           2.31080740438311   -0.43629364091802   -1.61113563654860
H           2.55862598579493   -0.10879536392456   -3.10637003126073
N          -2.84766208586769    0.93645342017252   -0.44608493010850
H          -2.92090830462775   -0.04299329991726   -0.69383019065171
H          -2.10754820803914    1.34716330389680   -1.00765599985442
H          -3.72057454815180    1.39757832107882   -0.66616348481143
H          -2.47920897785191    1.05966968984830    1.01918825236383
