    26
        -50.45469724  Gyration_radius:  2.51011138385 Dipole_moment: 5.577
 S          -1.11623506139598    1.84043983338649    0.51366619299312
O          -0.32890661788563    1.45106341723671   -0.64377565962411
O          -2.39705205507713    2.38440112868676    0.23125175742034
O          -1.30386737919045    0.59573955014016    1.41062844688235
O          -0.28369166604757    2.80133314919109    1.36707521824169
O          -1.26115298072768   -2.31131488394663   -0.71638217968836
H          -1.93277519094749   -2.99146823349176   -0.64897318315839
O           1.90970745795227    0.01765682414974   -0.73328895913346
H           1.17330678088725    0.64225478699024   -0.88127583714980
O          -2.44119077908489   -0.01394060201178   -1.35846565036566
H          -1.73933862777682   -1.47824370991729   -0.94839882981273
H          -3.04975328692522    0.51673399726707   -0.83517389362988
H          -1.64008679670484    0.53338733118346   -1.41386767674459
O           0.45391991850042   -1.19703202732549    1.10985042084208
H           1.09959226930176   -0.80605304242038    0.46539888737798
H          -0.55962811752404   -0.11102249709914    1.32946891288449
H          -0.10694814858929   -1.78816221980132    0.57637506523962
O           1.05192471250784   -2.08503361862392   -2.25225279759577
H           0.19065292900182   -2.19122817983807   -1.81321262983396
H           1.80889181386891   -0.65628837916863   -1.43009666624309
H           1.43823214083226   -2.95889956426803   -2.32202198247422
N           1.88735551623301    1.51979683524352    1.82035652893162
H           2.24128318761719    1.17334155792484    0.93350296953195
H           0.63541096532314    2.33527276482929    1.56533626195156
H           1.65673082354349    0.72064704166441    2.39847033482632
H           2.61361817229629    2.05661874001872    2.27580495828373
