    26
        -50.45649610  Gyration_radius:  2.47942588598 Dipole_moment: 4.759
 S          -1.08406305306761   -1.16259345634133   -0.91346378415671
O          -1.07762289417835    0.29781021624064   -1.10426048686663
O          -2.38764979373211   -1.72501397829887   -1.07470012987472
O          -0.07563215242041   -1.77816250030470   -1.93163796063058
O          -0.53717166360255   -1.45708992264064    0.43589540875539
O          -1.05860615308699    1.98526633132771    2.60157308476249
H          -1.34131290895357    2.90135496091837    2.61051604182226
O           2.72925609485076    0.35433191475665   -0.28297975906786
H           3.67450941998829    0.44740207548584   -0.15915172219707
O           1.98177041282580   -2.13877918187594    0.10265319173841
H           1.91409000329121   -2.61655712767012   -0.72817746651116
H           2.50816469873557   -0.59202379149044   -0.07716010000673
H           1.05068748141893   -1.95407919627890    0.35958151698081
O           1.20698011472839    0.36451034936823   -2.55809363097136
H           0.39917441127837    0.81046813943436   -2.26265565897234
H           1.85466592689396    0.47541859941156   -1.83509367104023
H           0.48907807400894   -1.02575088860723   -2.28648862455775
O           0.46557000684089    1.77400854851618    0.49837094629415
H           1.33946584323119    1.36397478265567    0.41465868931740
H          -0.11426360756731    1.26209009961999   -0.10315911877199
H          -0.34499568599494    1.92896717893649    1.90904142006073
N          -2.35746325267692    0.10717295590971    1.30329958587751
H          -2.44389011095037    0.45331187538842    0.33783785069585
H          -1.96463027813995    0.87280410088748    1.93512456164590
H          -3.22826793224681   -0.29704890256795    1.63338499685339
H          -1.59784301148300   -0.65179318277716    1.17508480883263
