    26
        -50.45649610  Gyration_radius:  2.47937108704 Dipole_moment: 4.759
 S          -0.37079118898705    0.32205699275201    1.76593642718021
O           0.12332864980562    0.68017360372197    3.05797416317273
O          -0.11954608753977    1.36929998105096    0.76124475145447
O           0.24916608475863   -0.93981483012897    1.28650492367530
O          -1.90791719105404    0.06053111688523    1.80381917189011
O          -1.73053455384222   -0.90326507984968   -1.96049087166473
H          -2.16918200408879   -1.36884050499639   -2.67348804250768
O           3.14333892903782    0.20940790920403   -1.38014078591226
H           3.56809380014003    0.92519902243831   -1.85596318349326
O          -2.55455482317555    1.19920675555805   -0.41293690853126
H          -1.73072757834828    1.69164397532267   -0.28035763910287
H          -2.35846205430660    0.52610566268093   -1.09337175247683
H          -2.30498395094707    0.48715047993533    0.98450188535802
O          -1.67945460999053   -2.37602584595352    0.21932552910943
H          -0.88352573773530   -1.96885945883089    0.62886225103765
H          -2.40062886916638   -2.14912022910882    0.81227192355658
H          -1.70313934053983   -1.52796179068624   -1.18858198215865
O           0.58890560351663    0.61389981271913   -1.69969430319508
H          -0.10337276433381   -0.01479659754561   -1.95335092703004
H           0.33500343623127    0.92475731016534   -0.80581409081847
H           2.18072004445285    0.25022492049543   -1.63259212191080
N           2.41153342813829    0.40717415543531    1.13478650671155
H           3.06594272734747    0.36428653961869    1.90977546209115
H           2.86843714055570    0.33007009119365    0.17302329790111
H           1.65771900149711   -0.36387419052117    1.21633804572177
H           1.82463190867892    1.25137019847480    1.18241826000358
