    26
        -50.45334095  Gyration_radius:  2.59310132817 Dipole_moment: 3.810
 S          -0.31604800590941   -1.09964348119293   -0.94674320257678
O          -1.07203964302673   -1.12677885791844    0.38001855634622
O          -0.63402875134455   -2.47667174677631   -1.54282869323205
O          -0.87944147919149   -0.06700150869217   -1.78940973833301
O           1.09776348601852   -0.97824366993452   -0.73873365579870
O           1.16573478504830    2.40151993728737    0.39702768967334
H           1.08971617302153    3.35683424718049    0.38991469044448
O           1.08338066926200   -0.07605396868498    3.43459163521721
H           1.50177821439224    0.42794031798523    4.13391124918374
O           1.26483181294531    1.49212112516954   -2.06733926283527
H           1.89392911383386    0.76867122939698   -1.98120425631027
H           0.39589055304888    1.04832737894440   -2.11427637842585
H           1.20318439708985    2.11740746385473   -0.55513308347273
O           2.60034915493372    0.13883083261738    1.26417269959439
H           2.33741000864196    1.03897258450816    1.02451791429922
H           1.74145314792357   -0.13270381820282    2.69999199526661
H           2.20073333521109   -0.42595144161890    0.58336809296846
O          -0.68236075947298    0.92371082271284    1.73069465801731
H          -0.15013096890803    0.55326187074228    2.47825936108132
H          -0.06221340991342    1.49420830465001    1.22857791095176
H          -0.93928818788128   -0.24443717639115    0.96006179206137
N          -3.10112330174234   -1.84094255809950   -1.81815412267260
H          -1.64212848095835   -2.43040484343368   -1.70939493012757
H          -3.76001945321933   -2.10027272801111   -2.54044332729471
H          -3.56524719168107   -1.86906354385304   -0.91993688795514
H          -2.77208520812088   -0.89363678226858   -1.98151069608405
