    26
        -50.45649614  Gyration_radius:  2.47945649252 Dipole_moment: 4.760
 S          -1.28063410928220    1.30988674147406   -0.08531302991579
O          -1.01773125453496    0.47463506185963    1.09904876154737
O          -1.67584440680552    2.63773175070687    0.26428753614990
O          -0.05712092681815    1.31965885729515   -0.92755576514665
O          -2.38144168257304    0.59939189011408   -0.93147298766060
O          -0.01516628478329   -2.47168744149662   -1.24277667628516
H           0.18141475870416   -3.26322091457199   -1.74510385667871
O           3.02166506078540    0.35689447931329    1.60436820048990
H           3.29411948330136    0.09366952024164    2.48510472128543
O          -2.25768542834130   -1.73644072894657    0.14420367252964
H          -1.50156262105479   -2.16503693029030   -0.30201532267276
H          -1.88447401545264   -1.25597714342140    0.89824184331266
H          -2.46015347917872   -0.34319648743181   -0.59043527233397
O           1.03817615727224   -1.22710331171051    1.01363002507534
H           2.38408061803972   -0.34397965859820    1.29744138905486
H           0.27928958143209   -0.61076170576462    1.07905715375371
H           0.88080069771353   -1.73472405687480    0.20346496489268
O          -0.44483739832422   -0.43354613861445   -2.85026820173852
H          -0.11844322127248   -1.73589070835630   -1.90215263492597
H          -1.38389490979363   -0.30208102004023   -3.00528139487669
H          -0.19461279535781    0.27995870758303   -2.22147651618001
N           1.14492877963568    2.14234950530339    1.16801084581606
H           0.83396536824668    1.90818134914521    0.15918200047453
H           0.32713903422220    1.81239657392352    1.69904281796946
H           2.00028621676174    1.54835823447026    1.40283979346107
H           1.28773674746245    3.14053354470423    1.28592793262178
