    26
        -50.46954185  Gyration_radius:  2.39862626031 Dipole_moment: 4.982
 S          -0.84898876037148    1.34065018367252    0.11214141707935
O          -0.21720979757447    0.61142483085605    1.21416579878984
O          -0.80662218886442    2.76487066959678    0.29762298678035
O          -0.23676439377293    0.94208108908385   -1.17273965639469
O          -2.33120997742683    0.85995402792872    0.02771409008395
O          -1.58615071391051   -1.08758449206321   -2.13172632372682
H          -2.49819064874583   -0.86267275616030   -1.93298677298473
H          -1.06662184795896   -0.28695039763962   -1.89190244316915
O          -0.47209943112580   -2.74545679467249   -0.40941131960655
H          -0.85169017121713   -2.17897091769026   -1.12878308181799
H          -0.57438998122311   -3.65425661765560   -0.69484529046913
O           1.59831321539278   -1.27117178879686    0.76956578942275
H           1.06055892773429   -1.93479612179404    0.30989143197056
H           0.94087786506924   -0.62628652724453    1.10695915998097
O           1.68709995040262    2.73391413048541    1.15525506848598
H           1.54294582939993    2.29945220060007    2.00031193094127
H           2.26401548314504    1.62972053661745    0.09911527832694
H           0.77890427741740    2.92089902866760    0.82146400257102
O          -2.01393334167208   -1.32680635302518    1.38914924820140
H          -1.31127551937623   -0.77971329459063    1.77500219815591
H          -2.37203371766291   -0.00085288377131    0.52969602068402
H          -1.54763247834629   -1.97996132481828    0.83536956895532
N           2.27253600596977    0.85188505209031   -0.61748144843995
H           1.29949455922021    0.91118167232293   -1.04835444680649
H           2.27242276143070   -0.08131019965588   -0.11788149400297
H           3.01764407399595    0.95075704764326   -1.29731170301785
