    26
        -50.45649619  Gyration_radius:  2.47947326596 Dipole_moment: 4.759
 S           1.02482149568959    1.14620826072202    0.99934768888844
O           0.81322898602144    1.31515416748838   -0.46119198794945
O           0.77604443954629   -0.26488879334706    1.34044358587249
O           2.33279294206623    1.57457751556522    1.38318613476204
O          -0.07554674511666    2.00354229740292    1.69696914307627
O          -2.75126965494215   -0.00232680245895   -0.29074764353861
H          -3.65442626400050   -0.00400830168544   -0.60985216285109
O           1.28295442472025   -2.42638354471662   -2.07343164404424
H           1.43087745419740   -3.36127863932034   -1.92074521393308
O          -0.59576637090937   -1.76103586645190   -0.39434848146462
H          -1.40240771400712   -1.24750245939970   -0.55067339186563
H           0.45735096434706   -2.19652929832423   -1.56596681921350
H          -0.08628941578594   -1.24100198269617    0.26145348952446
O          -1.60050136534934    2.31510885026177   -0.76841873930476
H          -0.67145456634689    1.99355197747125   -0.79165277256572
H          -2.36295444164032    0.87642208867497   -0.54350736905455
H          -1.63913954729433    2.89034971579245    0.00017746923055
O          -1.74504240387351    0.12384342002061    2.25198727783743
H          -2.23953157957282   -0.01010277394148    1.42008255246419
H          -0.96393690210700   -0.44628400227162    2.19222174277784
H          -0.80025753955183    1.37461222063182    1.99726155073221
N           2.53589296283264   -0.54850291268985   -0.73033723920540
H           2.17878076651815   -1.34322223202561   -1.34719425955836
H           3.50398693835285   -0.29434173316294   -0.90018412459087
H           1.88030555310061    0.30207945317984   -0.85666434651025
H           2.37148756313793   -0.76804061477967    0.26178556053135
