    26
        -50.45649617  Gyration_radius:  2.47943350585 Dipole_moment: 4.758
 S           0.55358148386088    1.35454426673096    1.10433469006809
O           0.04106400581547    1.54843816688877   -0.26286644721080
O           1.57194315031091    2.29873922256046    1.44075732461220
O          -0.65617579362195    1.45872310226638    2.08323018797007
O           1.05625283922362   -0.03854910363726    1.21863366566307
O          -2.29354064093147   -1.53253636407615    0.21212703715414
H          -2.94318936261770   -2.23407203440608    0.26965677822035
O           1.85430801698282   -1.23023260600263   -2.62324791359751
H           1.82438133822204   -1.02201233279043   -3.55862901133921
O          -2.56568877335679    1.18634643977783    0.37805438785466
H          -2.63149516067585    0.22063840811328    0.24524900187555
H          -1.49460046429339    1.39225546847757    1.53217750613452
H          -1.90371422245236    1.49792060643691   -0.25712269260900
O          -0.83531548776381   -1.43391730613485    2.40000705100702
H          -0.03597951178962   -1.02253792412315    2.00141167914572
H          -1.16807009171901   -0.77347154612126    3.01339244452423
H          -1.75000749874544   -1.58078405214969    1.04226710393357
O          -0.51316222084864   -0.61755110235844   -1.72252772113655
H          -1.10331300410836   -1.13223087204363   -1.15187292549483
H          -0.31594254117300    0.19733663364114   -1.21542242115945
H           0.91422028070233   -1.16469071327843   -2.30098065649746
N           2.52135086013517    0.53099846172029   -0.79198369471967
H           2.41406249314280   -0.17697272056545   -1.58372470051633
H           3.47815542863624    0.82784587157129   -0.62753023790693
H           1.89794241006953    1.33506081087039   -0.94806774563426
H           2.08293250710996    0.11071122853893    0.10267733973087
