    26
        -50.45649612  Gyration_radius:  2.47937631605 Dipole_moment: 4.758
 S          -0.01233535795106    1.74909605104419    0.54730334084238
O           0.74319948755879    2.90273954531959    0.92151466644007
O          -1.54378843935923    2.04186743486000    0.58778864791834
O           0.29123854410304    1.33970972345288   -0.84796675490239
O           0.24722216260897    0.59992560755756    1.43120159564434
O          -2.16065082302154   -1.56433272433824   -0.73419306055291
H          -2.78527307786277   -2.14426414762893   -1.17132567383050
O           2.86049762325591   -1.83841481566591   -0.51875288747538
H           3.31801494193882   -2.45325501386435    0.05731378016667
O          -2.34040569782254   -0.17828337759783    1.61968986326304
H          -2.37908595892927   -0.79387715638540    0.86201385004536
H          -1.43328215148823   -0.22732926376627    1.95659109422586
H          -1.99075339152277    1.24354201470941    1.00479431369576
O           0.39744143519663   -1.82863869611900    0.33212561378528
H           0.35248161677989   -0.95140742364785    0.76637601027214
H          -0.42539336609663   -1.90110678443270   -0.17427889329385
H           1.89116441458601   -1.95100555116179   -0.31936020596792
O          -2.00686659632119    0.74666424212806   -1.98289801710588
H          -1.09575400543968    0.98363354099240   -1.69873030981010
H          -2.11503407516180   -0.73488316044327   -1.27897880974839
H          -2.56955093208084    1.40652555419879   -1.56917797414177
N           2.59943167864940    0.71414240336512    0.04325030698965
H           2.87087517747728   -0.28762672260163   -0.20684812483292
H           3.35535185528164    1.38508482108399   -0.05234475279771
H           1.74725631850561    0.99654182260083   -0.55953817221019
H           2.18399861710228    0.74495207627584    0.98443054336517
