    26
        -50.45649616  Gyration_radius:  2.47945847768 Dipole_moment: 4.758
 S          -0.62448342171924    1.41636248792209    0.98214090637869
O          -0.32321904090081    2.61573302962627    1.69802762213720
O          -0.22296902667156    1.49394749403903   -0.43283430932837
O           0.05242845080877    0.24382607120417    1.59330266059530
O          -2.15191271018646    1.10387094814177    1.02498426265209
O          -1.42833509432951   -2.17457233205899   -0.94053679958946
H          -1.75951066998344   -3.04461277804744   -1.16606280244248
O           3.31338579435973   -0.49416943543172   -0.78147254384331
H           3.80690577287836   -0.26945320600089   -1.57212684696989
O          -2.46000068677916    0.31782063014128   -1.40713237281793
H          -2.16954761603389   -0.61494570206782   -1.39571527211859
H          -2.42218076196992    0.80158390174944    0.10486655654050
H          -1.66203805536436    0.84313746957302   -1.56853317613598
O          -1.70599950017178   -1.71233996173906    1.63482155421345
H          -2.50529824057834   -1.21122280487155    1.81688143159494
H          -1.51799613870627   -2.08370997015253    0.04464197765924
H          -0.97682737724969   -1.05878893829277    1.72561440364315
O           0.83526561702272   -0.67969756993603   -1.56632324507412
H           0.18458738123421   -1.37322713477184   -1.38068965173241
H           0.45451919916304    0.13624247296680   -1.17985899224689
H           2.39852172469585   -0.73532632989828   -1.09265552568427
N           2.22068627289083    1.31507526160855    0.77832547024190
H           2.81360920432804    0.63961080631792    0.20229514983521
H           1.63725284373492    1.89297220712794    0.15782382002036
H           1.45920650554131    0.74584994139609    1.29360944284367
H           2.75394959394249    1.88603344149203    1.42660626958577
