    26
        -50.45731604  Gyration_radius:  2.44436728617 Dipole_moment: 6.859
 S           0.01002591227296    1.90189747832629    0.62183021797512
O          -0.66925688289880    1.86134905689898   -0.66123354429212
O           1.28751565999808    2.57804186100100    0.56777786026009
O          -0.91215548929756    2.63209359422663    1.64452672497082
O           0.19789919864411    0.53164285275144    1.16359870523932
O          -2.33854996696557   -1.63029200114964   -0.23650266616096
H          -2.95703389245211   -2.36145680920798   -0.24053905719393
O           1.89351278646870   -1.30815151496542   -1.41861748006479
H           2.29461479518197   -1.51849798703491   -2.26288086784879
O          -2.82280100212863    1.03356125289069    0.67363519800762
H          -2.33065044307336    1.38758486226126   -0.08357296017730
H          -2.76911407062158    0.07178787785473    0.56197053444357
H          -1.74926020314891    2.12923266030665    1.57730431509735
O           0.05666722935344   -2.12469130635007    0.82031206154789
H           0.04865029953001   -1.18623570913904    1.08582379001789
H          -1.52951180095327   -1.93808425353955    0.23501530027959
H           0.69300117479466   -2.18245503580334    0.09873258118819
O          -0.46942374174073   -0.41936808605691   -1.96037193397217
H          -1.19850007636594   -0.89666515941349   -1.53283597236470
H          -0.52075111507703    0.48685729129998   -1.58611478774380
H           0.97266907589773   -0.96168777392431   -1.64013201486830
N           2.62636642106324    0.36761292748411    0.51177125754018
H           2.55725368988316   -0.23805347701064   -0.34359336026153
H           2.53062808191428    1.38628654211516    0.30519847400394
H           1.67094576505155    0.24944067820822    1.00544465851180
H           3.42725861466928    0.14825015797029    1.09345295586497
