    26
        -50.45731611  Gyration_radius:  2.44450488952 Dipole_moment: 6.856
 S          -0.14325311616747    1.69045963865949    1.06079987786935
O           1.10761384865632    2.28197205281491    1.48206601064765
O          -1.25386415190212    2.78399678336108    1.06639222421953
O          -0.02960664551010    1.24629127110534   -0.35209888374530
O          -0.57291344501777    0.59567715689925    1.91318465453651
O          -2.22283412274763   -1.58313645477465   -0.86009860068285
H          -2.81740854743497   -2.14690512571933   -1.35582729145247
O           2.14971161262014   -1.61413476546861   -0.29577427027170
H           2.70382251151301   -2.31987468618941    0.04014493172972
O          -2.91923444741563    0.73364703363263    0.65630230888244
H          -2.82615967762956    0.04048902367425   -0.01546959260498
H          -2.30303594565232    0.46835464875925    1.35692640439949
H          -2.05353741992864    2.28035680447557    0.81115106966821
O          -0.09252083302439   -1.81402686525067    0.96892414108631
H          -0.23006919049819   -0.95869676737904    1.43096977027265
H          -0.87786197704722   -1.91199018653825    0.40711049725653
H           1.27759457404695   -1.69997676899850    0.20337705886134
O          -0.05190033329314   -0.73996830671200   -2.15405089361441
H          -0.12708597959517    0.06095865272291   -1.60250058895605
H           0.70730495049460   -1.22131512976325   -1.80649864355813
H          -1.50751047068214   -1.30269484239251   -1.47757229517363
N           2.48006372017112    1.02421265143127   -0.31180305693267
H           1.45296390011655    1.17229785178644   -0.61784836013207
H           3.16502990750227    1.44300119700443   -0.93095760548376
H           2.40333353701910    1.50889434661670    0.60932845255281
H           2.58135774140708   -0.01788920375693   -0.22617734937398
