    26
        -50.45334077  Gyration_radius:  2.59420451522 Dipole_moment: 3.796
 S          -0.20230239610647    0.65713488232430    1.31435874577142
O          -0.51243878311067   -0.74213727414010    1.36674788938583
O          -0.83834967081735    1.37238689138388    2.51292301035787
O           1.21495867276081    0.94639619007917    1.27620256306658
O          -0.88046557864475    1.33215514472439    0.12384150265188
O           1.37335880827319   -1.81011948145719   -1.45954855490221
H           2.12559127225642   -2.00563572888010   -2.02026602020867
O          -2.37160343635479   -1.17725232110070   -2.44405081913846
H          -2.49744037560522   -1.75021731015607   -3.20166744175500
O           2.16359836154174   -1.53319737209691    1.03236660028833
H           1.72988520159656   -1.72063349584831   -0.53560931709964
H           2.01966162949531   -0.57394548200101    1.14797632357207
H           1.43484733400116   -1.93981488005348    1.51208798584572
O          -0.21714003979121    0.31293825792321   -2.04469794664070
H          -0.58776923469316    0.92690572030686   -0.81557164093526
H           0.40658753860223   -0.41816415960577   -1.84857168921386
H          -1.06288997243111   -0.12782487832252   -2.30878078252364
O          -1.17125136809601   -2.59428951414189   -0.54451451191701
H          -2.09197115300123   -1.76016855544605   -1.69703730682179
H          -0.28314820743665   -2.58210474512616   -0.92925792894348
H          -1.11123233856568   -2.01994331058927    0.23563755832956
N           0.30198820306529    3.57423967180625    1.86603149076169
H          -0.50387096306607    2.33366786366571    2.41396601876665
H           0.66780011341715    4.31234183229224    2.45294681650612
H           1.06740421059380    3.00211028554773    1.52086823393185
H          -0.17380782788316    3.98517176900742    1.07361923083514
