    26
        -50.45334079  Gyration_radius:  2.5931526398 Dipole_moment: 3.802
 S           1.28719383245859   -0.57932412935122    0.46306289012565
O           0.47054281630840   -0.17168642729938    1.56930159177836
O           1.39171739232276    0.52542378943026   -0.58660710669423
O           2.74050814969979   -0.74137568601365    0.92559955130788
O           0.84581671584802   -1.79890675629195   -0.17852561612439
O          -1.16016141908306    3.40878328160021   -0.09979152931597
H          -1.93424851503082    3.97061940802161   -0.15675577209716
O          -2.69106884549421   -0.20174222595943   -0.07938667537850
H          -3.47382257291510   -0.53159062313727   -0.52321858176169
O          -1.60997814512517    1.60043430029292    1.79387319444828
H          -0.79669180595175    1.07903091436337    1.88780866605631
H          -1.26989008114657    2.86517048418088    0.71772110971158
H          -2.20691669644288    1.03715253664229    1.28075016250712
O          -1.44681799146877   -2.17759929912562    1.12800121304792
H          -2.26737237342389   -0.98703112587611    0.35947782436684
H          -0.64589197557364   -2.23331292348020    0.57155654981808
H          -1.14281154981180   -1.74967410267280    1.93488290746689
O          -0.82849330930516    1.18013664309502   -1.49427623867046
H          -0.91829306487530    2.09146795548131   -1.11919079389200
H           0.45338129702270    0.79938215090317   -1.00710233294041
H          -1.50609677047546    0.64161058375008   -1.03292831611398
N           3.42194331150417   -1.64746395278979   -1.37233688090181
H           4.10824086980562   -2.34975861224118   -1.61480901841634
H           2.49039229608507   -2.05025771241198   -1.41908180771034
H           3.21242373914492   -1.09259392722114    0.08887974053474
H           3.47639470591697   -0.88689452387738   -2.03690471117391
