    26
        -50.45334054  Gyration_radius:  2.59428111818 Dipole_moment: 3.813
 S           1.43537809350806    0.02983894495702   -0.36814490545827
O           0.53440866533837    0.98287545373929   -1.15058832519806
O           2.74501982603207    0.07501162619396   -1.16518306421804
O           1.65753044505826    0.57053805428804    0.95557883123458
O           0.91177962271096   -1.30529667079339   -0.37385555709481
O          -2.94191418660590   -0.53431613131274   -2.01343702609394
H          -3.87068219860348   -0.76922700544255   -1.99542551285390
O          -1.89282471577734   -0.78080704941602    1.75855668112810
H          -2.40163233602551   -0.58641987640960    2.54709827045844
O          -1.77801164340912    1.05417249435555   -0.24099673164354
H          -1.81408562089347    0.43860055107318    0.52182755421629
H          -0.45344217371712    1.04741461337573   -0.75935286008272
H          -2.27736021513665    0.60215851251744   -0.96619606179110
O          -1.62151206980331   -2.33457719420822   -0.57415896808625
H          -1.87719910257061   -2.00154653042841    0.29793642844204
H          -2.45269587730813   -1.30210951845625   -1.62968094578434
H          -0.67911454518025   -2.11711262065312   -0.65618708965788
O           0.58035511694413   -1.38199772563869    2.41601585800854
H           1.04056911978997   -0.59385650308683    2.06761829290557
H          -0.97419479706229   -1.00365553507185    2.06721122431014
H           0.78676940331736   -2.07499247076768    1.78072173004554
N           3.12320918520242    2.52139332606478   -0.50277791367430
H           2.51294406104674    3.12348577061764   -1.03944254188229
H           2.66000045182093    2.28883465478405    0.37117208063286
H           3.06033534835889    1.03986757121765   -1.03940265567183
H           3.98637013301563    3.01172326852244   -0.30890678222629
