    26
        -50.45334089  Gyration_radius:  2.59281549248 Dipole_moment: 3.807
 S           0.59798941406943   -1.04207975447423   -0.87387139439858
O           0.48261325339374    0.35310056821945   -1.48454592030460
O           1.49154539400995   -1.77684258443896   -1.88099037966714
O           1.24553469184107   -0.99960476634664    0.40507970654361
O          -0.71168335343174   -1.65698960787276   -0.85208003015425
O          -1.36844421554997    0.57180025702314    2.25407234140447
H          -2.21438451784265    0.70507227159113    2.68428728227912
O           1.23313824431096    3.22891777343181    1.01311772902734
H           1.14594194659456    3.93240178193982    1.65779579988651
O          -0.80950945368594    1.91173634126223   -0.04177680735502
H          -0.09321632341183    2.52951091290160    0.24917768158388
H          -0.09129284543868    1.02704184129664   -0.89367204539546
H          -1.07026388550278    1.41872376854112    0.76511582754584
O          -0.99904015253450   -1.98679360494312    1.77748868555222
H          -1.28291338935226   -0.40744780198488    2.10403926962008
H          -1.07061282063917   -1.98447906032152    0.80329929385535
H          -0.05550151897118   -2.08024410094865    1.94359437745548
O           1.42260756770718    0.93506530626355    2.33975265766887
H           0.48647639094086    0.85536250710482    2.57245267253609
H           1.57471244792656    0.23838602761408    1.68120018044251
H           1.47937864608263    2.41667427108079    1.51866183417414
N          -0.33819493551064   -1.64689348530381   -3.67042410951188
H           0.91442425552681   -1.80642736913314   -2.72479182327461
H          -0.58339449953241   -2.30707469544548   -4.39644466553033
H          -1.00216019852827   -1.72015436352565   -2.90478841007712
H          -0.38375012250241   -0.70876241350831   -4.04574973391310
