    26
        -50.45334098  Gyration_radius:  2.59325249529 Dipole_moment: 3.810
 S          -0.46906794453137   -1.28390117964099   -0.58011355704478
O          -1.07039150194141   -1.52521964804911    0.71370611109436
O          -0.91471994969627   -2.37398991541818   -1.56282798601231
O          -1.07787712932074   -0.02005536806407   -1.18391583001263
O           0.96309119699643   -1.21209572545706   -0.55523037871950
O           1.44478294422652    2.90947454072484   -1.55708030417926
H           1.95991514497100    3.70307909948671   -1.40556551281657
O           1.31490492731788    1.25521961300174    1.99517831792340
H           1.28416873796645    1.67059801522121    2.85830301860867
O           2.72603520633196    0.88281043902410   -0.41305193639618
H           2.22829870334025    0.07755426757841   -0.62750911559948
H           2.01597731914593    2.15052681955385   -1.28564034997347
H           2.48170733673962    1.08875896240833    0.50057579287709
O          -0.44583614534225    2.02753037072055    0.07642080564860
H           0.14259313423016    1.75179357919359    0.81118617425270
H           0.14616841258904    2.47254022857437   -0.57998212718805
H          -0.84070518023924    0.86421227384844   -0.64122649912672
O           1.10291740515683   -1.35270707189510    2.24775949169782
H           1.23524690040070    0.27676206277700    2.15329612028542
H           0.21401540110010   -1.48390398614835    1.86453200336158
H           1.70276300052896   -1.66280791808004    1.56177632200458
N          -3.36416296818982   -2.05538248665023   -0.88076407557572
H          -3.01038031539796   -1.83082988186893    0.04482753086274
H          -3.72949710993337   -1.20979352559185   -1.29860373856361
H          -1.93150626796462   -2.38426715369110   -1.45262816046696
H          -4.10844125849855   -2.73590641155706   -0.80342212689322
