    26
        -50.45334097  Gyration_radius:  2.59326885065 Dipole_moment: 3.806
 S           0.55287675440535    1.11145287068141    0.81538673770593
O           1.57966838188748    0.23677850185027    0.09888921760365
O           1.42361440994652    1.93784682240988    1.77018214618201
O          -0.07352402463830    1.98961269098969   -0.14907152814038
O          -0.37208815046893    0.31724030450877    1.57072179459796
O          -2.16836235052103   -1.12159501655024   -1.15311121871846
H          -2.74099156877876   -1.19289914635855   -1.91824370451971
O           0.67041300665942   -3.53841414206118    0.06128582799108
H           0.34093861865427   -4.40161452471919   -0.19257204490281
O          -2.59739800808365    1.16152857832816    0.07696938262155
H          -1.75815915924940    1.61885673309222   -0.12493580380739
H          -2.37705985191387   -0.24679646249405   -0.72891679142097
H          -2.50827722542382    0.90353822484656    1.00002918137350
O          -1.30417512911285   -2.24491658017230    1.28018458215329
H          -0.00888382380644   -3.14647545218855    0.66202760655376
H          -0.94014663846511   -1.39944687931310    1.58810772453188
H          -1.80882261813432   -2.02203704836492    0.48489680777011
O           0.51782077884026   -1.37796006715733   -1.46514173298418
H           0.69932215813474   -2.23193972923389   -0.99917565507691
H          -0.45305249502267   -1.25144121804973   -1.40577879525578
H           1.14527323031462   -0.44221187357137   -0.59586395898098
N           2.52312996593564    3.14753065581917   -0.20326232604358
H           3.19124740438620    2.53396966545251   -0.65069676593974
H           1.62963714934334    3.05145856417188   -0.67732294910210
H           1.99016795492149    2.50517643169100    1.13524176274417
H           2.84683124018707    4.10275810639048   -0.27982951695777
