    26
        -50.45334089  Gyration_radius:  2.59299813461 Dipole_moment: 3.801
 S          -1.14889201489434   -0.52334568924815   -0.78320561633536
O          -0.98158946842634    0.99472672054348   -0.77641256212196
O          -2.19773722886613   -0.74044260178763   -1.88104302845661
O           0.07300225627699   -1.18094043774874   -1.14575464724641
O          -1.68976291651172   -0.94375917179775    0.49137113806261
O           2.71285895198291    2.17225982800363   -0.94405715232378
H           3.59440300592700    2.46904772322986   -0.71406139304928
O           1.93092159888271   -0.49699633965854    1.82024602256070
H           2.20271833007116   -0.51725238956667    2.73901796955269
O           0.30653965886976   -2.50280665504599    1.32251704863096
H           1.32581053120881   -1.27542926038022    1.69101937549176
H          -0.52678574365510   -2.01147501671510    1.18687620248685
H           0.57775733641449   -2.75503395025962    0.43404820659894
O           0.77613789703031    1.74599029823491    0.81321325461604
H           1.15904218435979    0.94467904638299    1.22963318133518
H           1.46731056559451    2.06920881449347    0.18301665207659
H          -0.25225725994417    1.33709247652030   -0.08106236524109
O           2.71185789677301   -0.48376832534529   -0.88490687962672
H           2.69140546636223   -0.58107093794076    0.07788923474511
H           1.83452997329183   -0.77376554887601   -1.18216066103407
H           2.77643130862416    1.19740795221458   -1.09079324069366
N          -3.98735687402066    0.42927232463459   -0.46874529075138
H          -4.97877836901474    0.24350161811448   -0.39362666615014
H          -3.03327333402723   -0.29388069048916   -1.49541008913938
H          -3.83750738368492    1.42937175586996   -0.48851627543397
H          -3.50678637864473    0.04740843664551    0.34090757141643
