    26
        -50.45334088  Gyration_radius:  2.59346937251 Dipole_moment: 3.796
 S           1.39817371643997    0.49698722066405   -0.06072046223813
O           1.66811862370751   -0.66529558953159   -0.87923812370221
O           2.63178469453711    1.40833031365136   -0.04305655690709
O           0.35166017466711    1.36442205680457   -0.75745679411764
O           1.00732221368961    0.18752004742743    1.28404111483009
O          -1.66818622668043   -2.05067443566856    0.55218465613956
H          -2.13343602666203   -2.83086433223279    0.24682325212112
O          -3.02437706144397    1.58046320984379    1.15109436374118
H          -3.92193723005115    1.42966349182421    1.45067503613899
O           0.89412512067951   -2.57962371638967    0.80756644955569
H          -0.71170080421650   -2.31009908522075    0.63355837233741
H           1.24952729352131   -2.04116156914675    0.07416140606386
H           1.11742164384698   -2.07735495446790    1.59772508149842
O          -1.87851340967758    0.26899198452385   -0.84597777160724
H          -2.38992401977444    0.84140345397022   -0.22139026453259
H          -0.60312790364827    0.90025269579874   -0.82931558430438
H          -1.79896414831561   -0.59905189348645   -0.39632004156187
O          -1.43022122311931   -0.04769201192815    2.51659985141087
H          -2.43522953754290    1.10406372340787    1.78512404799968
H          -1.64816371096990   -0.85887250152488    2.03557532605336
H          -0.52034275269516    0.16119032334056    2.25075555444239
N           2.81147754310623    1.29243345244609   -2.59657027588761
H           2.85884803433595    1.51050326181607   -1.03501738125821
H           3.62964555293987    1.29167104325941   -3.19122570289077
H           2.44789476666909    0.34712219081673   -2.51582140709547
H           2.09812467663995    1.87567163004574   -3.01377415622060
