    26
        -50.45334070  Gyration_radius:  2.59238777555 Dipole_moment: 3.805
 S          -1.02426601744352    0.61439367967810    0.88580465505303
O           0.31266314665530    0.27632284911689    1.54233030755392
O          -1.71579278920797    1.47092860344845    1.95387185129081
O          -0.83819706743856    1.38795673195733   -0.30747623063192
O          -1.77402994687558   -0.60699757442889    0.68641710062241
O           0.55189841214517   -1.17103397269528   -2.36823203664644
H           0.61883910897698   -1.97360887298174   -2.88770180552165
O           3.39555853299780    0.95959068854455   -0.71189451433100
H           4.12246349514199    0.86443610208175   -1.32890047806172
O          -1.97589607847216   -0.56928608139859   -1.97150651892311
H          -0.41967774516212   -0.99223153714204   -2.25478069104334
H          -2.03900684532986   -0.74558919853537   -1.01275237648749
H          -1.95825896780503    0.39118260942094   -2.03306227955414
O           1.21802746716762    1.55262802132910   -2.11344319050441
H           2.64574701884725    1.35044728650208   -1.22277536000969
H           1.05192723648845    0.66269372259874   -2.45591230839568
H           0.50325412807573    1.71056387232136   -1.47597913481971
O           1.80527942533756   -1.02274893650106    0.03730605224848
H           1.33614010418899   -1.13625019333170   -0.81656523605661
H           2.51320964621258   -0.35434927166758   -0.13993107222499
H           0.95424694826985   -0.30396528373127    0.92247393177312
N          -1.87892825255505   -0.54408779393490    3.52830467578414
H          -1.85338467242029    0.81295067796259    2.72481171056595
H          -0.97201895743590   -0.73264393825949    3.93451303392991
H          -2.59896067742823   -0.79112290823847    4.19434849490230
H          -1.98083667298444   -1.11017929211216    2.69073139947115
