    26
        -50.45567462  Gyration_radius:  2.46070383372 Dipole_moment: 5.093
 S          -1.10846663338849    0.74041136324608    1.41905449371380
O          -1.06364315104928    1.81856445727704    0.31790626420453
O          -2.46507860544221    0.46812239956144    1.78370312636739
O          -0.36448908068544   -0.40982976039596    0.96782616316200
O          -0.36973867490338    1.39149069228760    2.59178466992567
O          -1.24850204999016   -1.34942941164140   -2.03753519521900
H          -1.82588309728771   -1.38164746478629   -2.80214243569805
O           2.48221472225372   -0.09803630221369   -0.74630593396864
H           3.22114919748469   -0.28760744083867   -1.32633697933380
O          -2.89867157271513   -1.52073006917757    0.04294990577711
H          -2.62785182983828   -2.27133869685470    0.57639367919064
H          -2.87041665778926   -0.75413493263427    0.64877951413290
H          -1.84345701027856   -1.38647544292527   -1.24767043125435
O           0.94127384366559   -2.21385634058555   -0.49048890742913
H           0.47063399717207   -1.74899007625807    0.22267777840863
H           0.32118790749295   -2.18044128783560   -1.23198187583743
H           2.00234313943365   -0.96004451738580   -0.61260839299052
O           0.15174617834302    0.94101231513268   -1.70537676151326
H          -0.34870405872222    0.11586558310285   -1.88423332350584
H          -0.56873370394425    1.49073349774887   -0.52831147160647
H           1.02831365072442    0.65172583225105   -1.38097267925255
N           1.88235409509214    1.79923336401172    1.44892924248711
H           2.06877078807199    1.01985411603067    0.82077146411819
H           1.75815195494041    2.63228058523931    0.88746694399813
H           0.59001896428363    1.56456695798413    2.21523749886875
H           2.68547767707557    1.92870055965811    2.05048364325322
