    26
        -50.45590476  Gyration_radius:  2.4428962735 Dipole_moment: 7.049
 S           0.05495889406650    1.73121688143346    0.51817848604793
O           1.09467026548009    2.57134458705678    1.08777959532861
O           0.76151870639846    1.04963680060421   -0.71353519891937
O          -0.24085689602890    0.59869306710460    1.43528548617216
O          -1.13931535721259    2.39088446092794    0.06869523349367
O          -2.42651266340901   -1.24891133010087   -1.26249009604368
H          -3.26508107240753   -1.53937799676812   -1.62385403755788
O           2.62686556507143   -1.44486624618974   -0.18085631953545
H           2.95729776776412   -2.31678836625896    0.04278493155157
O          -2.86821267172309    0.48674299360353    0.63813518569882
H          -2.27844835452156    0.22287026079070    1.35504201641290
H          -2.45126045317472    1.31516285163880    0.31890101055031
H          -2.65257474526794   -0.59747647841616   -0.53723551393620
O          -0.00603677537742   -1.71849214101095    0.11191908418846
H          -0.15539331406615   -0.89481439831285    0.61859908205612
H          -0.77836100398222   -1.80085151200810   -0.46197353965039
H           1.64794404480464   -1.53799296805069   -0.25094578316275
O          -0.73559807824316    0.25442486667147   -2.70186061185602
H          -1.41261508673652   -0.29015105509623   -2.24339776717550
H           0.14077615233388    0.86981045192494   -1.46602957383936
H          -0.14584503740121   -0.35562526035649   -3.14976991471539
N           2.30869161721844    0.43317193345106    1.69919652197648
H           2.61674234989336   -0.19994271014470    0.91629022131746
H           2.14502529430580    1.44023573134567    1.37240910392223
H           1.29577520129761    0.21204972073751    1.89203370653727
H           2.90584567091932    0.36904585542655    2.51669869114035
