    26
        -50.45567436  Gyration_radius:  2.46091878224 Dipole_moment: 5.090
 S          -1.13345833240035    1.25456284711355    0.96627542422755
O          -0.83636252659435    1.91996618763332   -0.39233717516407
O          -0.51110064624845   -0.04643011132822    0.98750114106222
O          -0.43147362525963    2.16655511029285    1.97650693983852
O          -2.54344364419836    1.24620011378757    1.20976006986675
O          -1.21089057213290   -1.79093958953259   -1.68996085753396
H          -1.70750810864859   -2.00310222999305   -2.48205398776200
O           2.50851939948294   -0.57387505750855   -0.33321919654558
H           3.26836350040736   -1.00860501088816   -0.72313554952497
O          -3.07079015627769   -1.13145500642681    0.09542156015222
H          -2.96793770885357   -1.70227993485027    0.86015484570619
H          -2.99648685293076   -0.22154789137050    0.44463150692746
H          -1.88159503933988   -1.51752265889958   -1.01572632815521
O           0.67422462559180   -2.33767824238693    0.33054592750428
H           1.90411810218743   -1.29795869330475   -0.01450439633561
H           0.20271083280104   -1.62811609803649    0.80005897042188
H           0.14150097809289   -2.47733734290756   -0.46451861325124
O           0.44933405624759    0.33713024800517   -1.86974265638139
H          -0.13846589578478   -0.44876445507810   -1.86049175500327
H          -0.30596682822638    1.29656001816173   -1.02356125252054
H           1.24104504401569    0.07930311240286   -1.35595094258991
N           1.95805841710189    1.96718486057339    1.08566944531358
H           2.09757172031192    1.01534774046695    0.75212826545719
H           2.00842172104931    2.58977379161639    0.28921111039317
H           0.57577170291754    2.11541362150056    1.70036839604380
H           2.70583983668861    2.19761467095716    1.72696909785154
