    26
        -50.45479408  Gyration_radius:  2.4718266106 Dipole_moment: 5.888
 S          -0.21133900293754    1.85133268958296    0.97715437683775
O           1.15871588370427    2.51949529307124    1.09552264064403
O          -0.35980238890450    1.32000220583125   -0.36606804722658
O          -0.13327833088848    0.65648924657119    1.95688197903781
O          -1.24331443611495    2.73345878902014    1.39706496781177
O          -2.23528591585732   -1.68439761210680   -0.41949119607001
H          -2.95888150593260   -2.29971192826093   -0.29344595331982
O           1.79316288939871   -1.37441619621076   -1.30928019766133
H           2.13387117438168   -2.11735316276438   -1.80915775507680
O          -2.95397600381398    0.83472213908512    0.09505489675126
H          -3.12043641416191    1.36527256215966    0.87864537362625
H          -2.58545357215490   -0.79198956235223   -0.19583414372147
H          -2.09904503659779    1.16051572612595   -0.23485621622754
O           0.16788181528194   -1.61425051280498    0.86508086207032
H           0.01370035998308   -0.25448253491868    1.51280631259670
H          -0.70312066775244   -1.74540850854636    0.44173110475091
H           0.81437051328903   -1.56664296695517    0.13310710321996
O          -0.46744621644743   -0.54248224013862   -2.31872817529586
H          -0.44993603528746    0.28857000089319   -1.81620434558098
H           0.99526653309076   -1.04302290840645   -1.80811479681263
H          -1.15864310948601   -1.06955460621055   -1.89136281443909
N           2.77796915582779    0.60971366829949    0.59853717330873
H           2.46692918602053    0.05815104991456   -0.19899034201659
H           2.76112041902565    0.01569972048769    1.41816997986836
H           3.72977240413715    0.90968521365489    0.43287861521981
H           1.86719830219680    1.78060441497767    0.85889859770538
