    26
        -50.45479405  Gyration_radius:  2.47189377338 Dipole_moment: 5.884
 S          -0.24482393899354    1.97326055157640    0.68774533656128
O           0.08498458963349    1.89573130752665   -0.82172247319055
O          -0.53092711188447    0.62788072561161    1.15342796541236
O           1.05813506968091    2.45143620396791    1.32906733573440
O          -1.28640651209753    2.91847728409917    0.89071230073878
O          -2.10365829332881   -1.34646105051659   -1.33174975899829
H          -2.74177078223270   -1.63600511608553   -1.98522126105600
O           1.71271677111345   -1.96578855218697    0.13945207545377
H           2.04811880874670   -2.84818101578651   -0.02445772715477
O          -2.97678832850244    0.75235986868387    0.06758220348714
H          -3.08118652943095    1.69564106724725   -0.08282667662271
H          -2.21114584628698    0.69058553503921    0.66419678401287
H          -2.50139535750107   -0.56799166096110   -0.87902557995575
O          -0.73507453476949   -2.06269503210511    1.04515122771473
H           0.82524366246607   -2.08051248020270    0.58048654820090
H          -0.72549820389409   -1.13418738535581    1.33025773491118
H          -1.30694063096043   -2.07029893936513    0.26342016791829
O           0.43822808970317   -0.44685155840100   -1.72979239280082
H           0.25125762596977    0.94993290972010   -1.17804560854883
H           0.96843113320362   -0.98474505658754   -1.10883873148114
H          -0.46743628982382   -0.81214302476953   -1.69092374773815
N           2.76465650811133    0.73683196161125    0.51306561266974
H           1.79295983181565    1.75237564365559    1.05628085781751
H           2.91958707480386    0.94834459635776   -0.46480287851357
H           3.65132972707032    0.77376687673819    0.99871614548214
H           2.39740347739046   -0.21076366951651    0.57784450994725
