    26
        -50.45731611  Gyration_radius:  2.44443541229 Dipole_moment: 6.862
 S          -0.87954661481592    1.35565835405000   -1.17976876886743
O          -0.74725848078075    1.02426611194138    0.26212385552050
O          -0.10043565011926    2.53766211168840   -1.47617301974620
O          -0.52429929082330    0.21548426174844   -2.00653354690801
O          -2.39042743045808    1.67069969052131   -1.39825920525873
O          -1.11182764365367   -2.54946236804722    0.67157096355447
H          -1.36953964766333   -3.35367649895747    1.12318591388708
O           2.61200777012039   -0.19037768437386    0.67330671922228
H           3.50062137866476   -0.47681545140358    0.45817280351524
O           0.04831657652298   -0.67991790823585    2.17389094624569
H          -0.75843427003366   -1.93393666701966    1.35557185989483
H           0.98763746983691   -0.66644814480120    1.95850231450510
H          -0.36746126648895   -0.04090582120386    1.56549611042228
O          -2.72447878139808   -0.96120370874611   -1.06924797048178
H          -1.97036750855629   -0.83933126229933   -1.66710069856878
H          -2.36895558691503   -1.50234846954482   -0.34735715325883
H          -2.81855471720265    0.80992452545592   -1.21379331751734
O           1.04055059956501   -1.55840317370146   -0.85172053874866
H           0.53072995031186   -0.90895041874406   -1.38305005274693
H           2.00615439956015   -0.72908091722444    0.07335229786524
H           0.36169304143906   -2.07538925326982   -0.38921490942132
N           1.46009358813757    2.20325384590869    0.55778475768245
H           2.11873927089773    1.38483296866145    0.55472695078070
H           1.26685928590512    2.58143675183957   -0.39556975229078
H           0.48439208078664    1.76485891485353    0.71965483131589
H           1.71379145716112    2.91817023090302    1.23044860940200
