    26
        -50.45479405  Gyration_radius:  2.47187536322 Dipole_moment: 5.886
 S          -0.54085336939277    1.96276504440252    0.52990304533673
O           0.68946339230465    2.70227459699806    1.05626199641590
O          -1.71564152416408    2.74208796355329    0.70904650262815
O          -0.26347445235481    1.80053870871067   -0.98348360598502
O          -0.58096988972787    0.63763603111844    1.12246206551946
O          -1.90294775284976   -1.78527634117538   -1.09653169049859
H          -2.50939866875576   -2.23202847076099   -1.68872087123857
O           2.01906388697972   -1.64203418821909    0.21271040275919
H           2.48911450059657   -2.47002778378828    0.10587100664694
O          -3.05564536534292    0.26501854134123    0.16610983041676
H          -3.32022576565619    1.16095182265290   -0.05855290495656
H          -2.26709960535317    0.38316989064486    0.72305090432255
H          -2.40577434608439   -1.04309161982343   -0.68983876248736
O          -0.34109320989986   -2.04905944334466    1.25459129992558
H          -0.93432139021548   -2.22115754846036    0.50850455317238
H           1.18102591757851   -1.85739087630386    0.70930998194621
H          -0.47424071530937   -1.10887668899505    1.45903554313735
O           0.43737940164179   -0.52832132502711   -1.70679201967113
H          -0.39304413478861   -1.02970297698540   -1.58786157487108
H           0.04325511924941    0.86526047424707   -1.26656127452063
H           1.07345630336078   -0.91358056058444   -1.07196041354116
N           2.62249366534322    1.21741974941624    0.29778548062120
H           2.42057770172937    0.23303056626043    0.46282927011306
H           1.51857799342365    2.10832241957206    0.80437559375439
H           3.50902749881471    1.44250777808010    0.72994829516703
H           2.70129479887764    1.35956422646293   -0.70149263411425
