    26
        -50.45289442  Gyration_radius:  2.6482935077 Dipole_moment: 2.978
 S          -0.39960436082672   -0.70611394836848    0.07302929609093
O           1.11159035141445   -0.65172213837990    0.36997768303600
O          -0.85833768972810    0.74417881982520    0.18288641883187
O          -0.60509674279885   -1.15346384813687   -1.27176404201795
O          -1.03863433848472   -1.48535999926130    1.10548366322990
O          -3.09632780770311   -0.38591550837776    2.49408424531487
H          -3.89685522515173   -0.40688281759553    1.96819744109759
H          -2.44779066181414   -0.95302249940944    2.03935599943224
O           0.57372753441327   -0.67625964374398    3.12288571197041
H          -0.00280926257230   -1.20753911149954    2.54743993508675
H           1.41296073152777   -0.61792624739731    2.65904901289215
O           2.58132548357775    0.72749711574217   -2.94344853271266
H           1.63711111598377    1.04053386310137   -2.89477022510028
H           3.10239912558780    1.33882613653295   -2.42083662153963
O           2.07575678429268   -1.55349847021211   -1.74142610249053
H           2.38327056065504   -0.75878927933958   -2.25734548480066
H           1.60766433407417   -1.03297121423488   -0.46541121867096
H           1.20866739552438   -1.78269108210069   -2.09965257001680
O          -1.05492531420044    1.34663152155501    2.58100128373994
H          -1.92015656852187    0.92361529490234    2.76264970035777
H          -0.38909845859305    0.74068269280248    2.98650540156574
H          -0.92514247543817    1.06406757608221    1.20463887105568
N           0.00840028358777    1.35394050293672   -2.57145382420304
H          -0.17471451487813    2.01645857533718   -1.82696064780113
H          -0.33388071117083    0.45461838331159   -2.23770962205678
H          -0.55949956875747    1.62110534592950   -3.36640576229396
