    26
        -50.45479406  Gyration_radius:  2.47188531977 Dipole_moment: 5.883
 S          -0.35886048083368    2.06726646980790    0.15570307753948
O           0.70525319356512    2.70000471799623    1.05289928008692
O          -1.17110371303261    3.06478699527272   -0.44826579253255
O           0.28934047374994    1.15403131650908   -0.76874217696767
O          -1.22139198212146    1.22899100590932    1.12863410026762
O          -1.72513085863740   -1.66535854380393   -1.50410663254702
H          -2.47072104514964   -2.19088265090843   -1.79729894509561
O           1.82386033167655   -1.76281075382436    0.61910111534368
H           2.22208294015256   -2.63326200025761    0.66038967777888
O          -0.82413690288444   -1.27522849723630    1.03848714083888
H           0.13095105573821   -1.47413835938208    0.97309962892303
H          -1.03955320958075    0.22122766778988    1.10608706518151
H          -1.20319410149491   -1.50390607051092    0.16716541053895
O          -1.99016849455702    0.90989627854802   -2.15477215596131
H          -1.08364381766163    1.09343314180438   -1.85394461361865
H          -2.49904849604171    1.66040039046430   -1.83684978471139
H          -1.91504962661818   -0.73736290845171   -1.77227633135635
O           1.05600960415783   -1.21402053561055   -1.81618339763683
H           0.93353953787991   -0.26973783414207   -1.62425417409995
H           1.65513388392368   -1.57706776202264   -0.34646255637285
H           0.15629519280850   -1.56385757454822   -1.89571031318261
N           1.74731069888413    0.68277069881312    2.22034110175986
H           1.91604519495287   -0.07798950909233    1.56477237357723
H           1.19646583926934    1.90428672577620    1.53096693290334
H           1.05939449853413    0.37079967894072    2.89444963906453
H           2.61032028332074    0.88772794215993    2.70677031027928
