    26
        -50.45479406  Gyration_radius:  2.47183086439 Dipole_moment: 5.888
 S           1.11263673385290    0.23031102084349    1.77085481015671
O           1.21083724036313   -0.35450985397453    3.06228459055498
O          -0.13615376073026    1.14218263941835    1.71885512917692
O           2.28016757575665    1.18336377406615    1.51376108314659
O           1.02501791449929   -0.71224046417022    0.66966495459446
O          -2.32183010214674   -1.61709470754070   -0.05613399260977
H          -3.21252469029721   -1.95070711776739    0.05970434513698
O           0.13987624649139    0.59497239000909   -2.53884117619000
H          -0.15064205154750    0.61109031478821   -3.45166173725691
O          -1.51405797382494    0.96280235768772   -0.40432021873853
H          -0.67456725480989    1.08477626636489    0.84959310233211
H          -0.93686807262653    0.91485312048557   -1.19207021681248
H          -1.90684967540488    0.07306004004993   -0.30850970601531
O          -0.75976331137987   -2.16890016559933    2.03721987743119
H          -0.64890706372390   -1.83352493738616    2.93074311050042
H           0.02010592505982   -1.83642229828073    1.56057723920520
H          -1.82710515112153   -1.85212855142563    0.76184559142076
O           0.05455628333872   -1.83549141963615   -1.58649709773728
H          -0.84233486762666   -1.95338463949549   -1.24027067198343
H           0.18523224450812   -0.36635233155039   -2.27594697384371
H           0.58796165255921   -1.60841773276589   -0.80714244377699
N           1.64445975406780    2.29334643554322   -0.69533388024019
H           0.89343704359161    2.93507334956012   -0.47374252238622
H           2.39840486353803    2.81081709107826   -1.12793906112348
H           2.08731057591583    1.64088076130085    0.58783062117684
H           1.29159992169726    1.61164467839609   -1.36452474611951
