    26
        -50.45479401  Gyration_radius:  2.47185271671 Dipole_moment: 5.886
 S           0.42524453450185    1.71698034877279    1.13877173297643
O          -0.25125746351273    2.84737806660348    1.67172820725887
O           0.09737427575812    1.39159756964838   -0.23792078486063
O           1.94045785685003    1.88121506142556    1.26000100669260
O           0.11006755916208    0.47791801276224    2.00995777930110
O          -2.67232217205080   -0.80268076042523   -0.47410342988463
H          -3.55831532196635   -1.15284992861151   -0.37181014446784
O           1.22212989285749   -1.76294088158382   -1.48901138266178
H           1.29146392534770   -2.52742489565048   -2.06231755698725
O          -0.37277726375585   -1.65184968135089    0.71799695545801
H          -1.24101788870261   -1.44697363455966    0.31890330559098
H           0.24679510724776   -1.75303957273306   -0.03163762971259
H          -0.05921594551465   -0.38479233550299    1.48460771976526
O          -0.64034575620840   -0.13979753387781   -2.33661237056838
H           0.57625529552121   -1.14149169579562   -1.92705756395503
H          -1.46431353687948   -0.44564746113200   -1.92953697373888
H          -0.34304794954081    0.58801238963983   -1.76619380645903
O          -2.50649191011398    1.75345849047261    0.27803160250671
H          -1.59430382593977    1.80658152549711   -0.05525340467398
H          -2.48034736102669    2.23363275262781    1.10985809110774
H          -2.70327525774607    0.13068555762805   -0.16287951153996
N           2.82768750119887   -0.40152055229298    0.53985012805419
H           3.82352724793730   -0.41893789834225    0.36283982277461
H           2.62142078390483   -1.02989479601936    1.30636631311005
H           2.36079550893382    0.97528287636200    0.93402574641122
H           2.34381215373383   -0.74290104356560   -0.28860385150343
