    26
        -50.45479405  Gyration_radius:  2.47187298643 Dipole_moment: 5.886
 S          -0.24133580295165   -2.08969215310914   -0.03611870596769
O           0.92018504425629   -2.72025305872641   -0.80483869107031
O          -1.22776087642500   -3.06272223886169    0.27962350765951
O           0.40672548238855   -1.57879211913448    1.27246733265625
O          -0.72360665089850   -0.93744657689473   -0.77674156024325
O          -1.85288740946403    1.65308045398110    1.35818491924284
H          -2.35003516143301    2.11210758110234    2.03656491136283
O           1.48666085352558    1.85808307492507   -1.07501342969083
H           1.78247060672615    2.75341412673509   -1.24495982543894
O          -2.85336437312912   -0.76679253515184    0.83939864253313
H          -2.28120799546787    0.77397748412577    1.24478806401638
H          -2.84997977300127   -1.62767098471124    1.26609831995398
H          -2.24518651663242   -0.87212937317747    0.08773086793157
O          -1.10087813255206    1.66876285898860   -1.37499188410809
H          -1.08461079124069    0.69762978930180   -1.38534607068077
H          -1.48485672353037    1.89557287982118   -0.51516420516161
H           0.51759697259982    1.83340632127813   -1.31084302250040
O           0.77455790626231    0.92902950797028    1.38578408258593
H           1.11245395500882    1.27041243632983    0.53411306173577
H          -0.14230474536422    1.25942032950789    1.45932298192140
H           0.57612728598775   -0.56913361011068    1.30312223158105
N           2.63038229165976   -0.82826463345492   -0.91845659866214
H           1.64221982399760   -1.96544035759699   -0.91602069194553
H           3.01304992751705   -0.74828428219425    0.01540570039086
H           3.38790909770959   -0.99567698001622   -1.56771610941417
H           2.18767571445156    0.05740205907335   -1.15639379868795
