    26
        -50.45479414  Gyration_radius:  2.4717978564 Dipole_moment: 5.886
 S           1.08772509954332    1.75720599031963    0.39639429741374
O           1.79683321522438    2.76472395353403   -0.31179759365781
O          -0.43213599613515    2.00636770813340    0.24996246602520
O           1.36105534636152    0.39512351721328   -0.02640864901012
O           1.33962213203162    1.86767799726085    1.90034695038662
O          -0.79146705641121   -0.65605114399172   -2.63695038783716
H          -1.24009057051063   -0.67969497889448   -3.48324906289414
O          -0.80275532818287   -2.16835618687626    1.21329950098632
H          -1.23020261181748   -3.02258372276183    1.28789263137377
O           1.18382800035405    1.13900230223898   -2.59399821452157
H           1.47256498806795    0.82111112996355   -1.72134963088727
H           1.25625494892441    2.09505995826849   -2.53085241311775
H          -0.09596621426832    0.03691929930877   -2.70902251965966
O           0.82364315148319   -2.12636289418051   -0.82987210654930
H          -0.12360801749568   -2.25703823709903    0.48793297725579
H           0.28705919389045   -1.85780110221426   -1.59023823733693
H           1.25839160100127   -1.30820007828040   -0.53811263662774
O          -1.82830312493651   -0.06691315129759   -0.18607476393420
H          -1.52885476120277   -0.81245066899733    0.37118367313795
H          -0.99395883129372    1.16338675451525    0.09913259968090
H          -1.56297905405049   -0.29448660149076   -1.09874284619065
N          -0.30025225993327    0.17706654026964    2.88519062628332
H          -0.29561508467719   -0.69409222648666    2.35785860636806
H           0.71349510328452    1.15771456498990    2.35560193406503
H          -1.21641520571114    0.59748775967816    2.79090651129759
H          -0.13786865354047   -0.03481649311859    3.86096628795018
