    26
        -50.45479398  Gyration_radius:  2.47190034055 Dipole_moment: 5.886
 S          -0.97928604734983    1.49505047669909    1.10946481181564
O          -1.47888772007015    2.58449887860851    0.16020420336505
O          -1.88716602431845    0.28114838818410    0.80019389600407
O           0.38084709604636    1.14174882004712    0.74364100995355
O          -1.16109005797901    1.88154831094842    2.46485864340880
O           0.86647539436849   -0.44550737179465   -2.42239102350932
H           1.29644826887582   -0.93975432441218   -3.12151218742982
O           1.06434117118398   -2.29220325331017    1.27478256857247
H           1.15862984846914   -3.13617004483228    1.71852652752699
O          -0.79939861659445   -1.55467806285893   -0.57267559708539
H          -1.45164342095390   -0.44549032243221    0.22472069534176
H          -0.26260918376831   -1.17641390722380   -1.29713317326079
H          -0.15939983724490   -1.92522533939405    0.06622387642809
O           0.63167935442284   -0.29406826556273    2.99168909523790
H           0.89602970706684   -1.62420834742100    1.97797534631944
H          -0.10750396239358    0.02495829201037    3.51605893603749
H           0.71254745634598    0.35786533033408    2.27450564097895
O           2.38431296320780   -0.33866801995509   -0.29956276490662
H           2.17661556050027   -1.13233086163368    0.21536595905298
H           1.53800326838455   -0.35285830929204   -1.69044763477131
H           1.85412092901702    0.36353484049569    0.11188685947911
N          -1.32366693586198    1.46911486701662   -2.13073389013008
H          -2.08209555880510    0.79918302129288   -2.16128822908128
H          -1.42254470353637    2.10926324592418   -2.90775445011317
H          -1.39715297859124    2.18871510026832   -0.80954397989124
H          -0.44760596041648    0.96094685830166   -2.23705514934157
