    26
        -50.45479398  Gyration_radius:  2.47187577784 Dipole_moment: 5.886
 S          -0.29057601627041    1.62143107835691    1.30829203344305
O          -0.00313338565139    2.06379217970168   -0.14605533495900
O          -0.51716907443598    0.18712984087152    1.30361070932227
O           1.01399932015839    1.91287193246154    2.05044969207363
O          -1.35669295849174    2.40156352915953    1.83210246908194
O          -2.09534449953769   -0.91160117256695   -1.67029138000876
H          -2.74111143006025   -0.99117477044691   -2.37366439412651
O           1.78026518730149   -1.82927416142552   -0.54942203751394
H           2.14047580131077   -2.59257611446604   -1.00280314996016
O          -2.99742226527771    0.56477792399565    0.36295909739838
H          -2.21319865714805    0.33978839672366    0.89235929778298
H          -2.50557221403378   -0.34547207047634   -0.97728874155521
H          -3.13648376223046    1.49962582150308    0.53577315026621
O          -0.63652581215402   -2.32131579192224    0.30998787124269
H          -0.64939882335478   -1.54046928463355    0.88757193088735
H          -1.22974723997085   -2.09207382706097   -0.42058605153406
H           0.90981527770515   -2.12017168022361   -0.15831189486702
O           0.40360434640761    0.17112792846236   -1.78647351236891
H          -0.48797036651359   -0.22283944069227   -1.85701788146496
H           0.18520960164062    1.29750462945652   -0.79882284559456
H           0.96858956050909   -0.52025959852061   -1.38793105165346
N           2.75247411548685    0.63596747190514    0.68526427306887
H           2.41889682073832   -0.29360891251151    0.43698497591989
H           2.87339454953999    1.16577764697579   -0.16892686438710
H           1.76349865108190    1.37353814523594    1.54931841577578
H           3.65012326325038    0.54594030013573    1.14292122372979
