    26
        -50.45731609  Gyration_radius:  2.44442621549 Dipole_moment: 6.860
 S          -0.30010428140577    1.96786976768202    0.20333218103917
O           0.76874816896551    2.82277254605023   -0.26437453714775
O          -1.16434958562584    1.49771264082003   -0.86513489448260
O           0.27449245327765    0.82558776427791    0.95920357640844
O          -1.17023229500484    2.75276863088411    1.23116795043818
O          -1.92912987094808   -2.02037438229578    0.61746788019391
H          -2.36354496551590   -2.82615904822502    0.89872469426220
O           1.86102315356470   -1.26394953776871   -1.49978518577593
H           2.14659179576043   -1.59926853673499   -2.35065155234366
O          -2.82172944079609    0.65840720002624    1.04607481528369
H          -2.55690741692180    0.89728990532594    0.14398742931906
H          -2.57862792512788   -0.27709418689997    1.12407684320432
H          -1.87554491568453    2.11068272518555    1.45121337224678
O           0.66160190366493   -1.81695833964221    1.20472927633242
H          -1.00338838431844   -2.05800274086116    0.95386664115808
H           1.16119482946183   -1.93757564358577    0.38939544593843
H           0.49404557434381   -0.85819325255274    1.26796146689889
O          -0.69652864506429   -0.96037944512967   -1.68254299163753
H           0.86241969626297   -1.14825392582701   -1.58080550800184
H          -1.21827337252025   -1.43855286925387   -1.01826641100307
H          -0.88001824918801   -0.01344367509155   -1.49914747366492
N           2.52977489930223    0.93313493259612   -0.15953987954856
H           3.44735936409902    1.00515250236588    0.26561741201351
H           2.17904720732761    1.83800241727535   -0.54370730982823
H           2.44860010265043    0.13447599514297   -0.83704091823013
H           1.72348021943896    0.77434854623529    0.54417764692616
