    26
        -50.45479405  Gyration_radius:  2.47185538495 Dipole_moment: 5.887
 S          -0.49618792105596    1.92304437842019    0.69437027354767
O           0.75893185809254    2.60161553214933    1.24367609702734
O          -1.65314092078327    2.70288404954999    0.96404377617196
O          -0.25992171116859    1.87497871791365   -0.83387295148138
O          -0.54297317393236    0.55656451871750    1.18347275034370
O          -1.95767388606818   -1.66617801792782   -1.18377987138676
H          -2.58548283647422   -2.05641592467977   -1.79338880765125
O           1.99659169272151   -1.68282507341618    0.03395498906011
H           2.45063607263698   -2.50660198257870   -0.14821843014161
O          -3.04558738249747    0.29524585325319    0.26390855459026
H          -2.24198478365223    0.35789712025684    0.80820726964470
H          -2.43822773316975   -0.95078457387074   -0.70801097086180
H          -3.30097978239624    1.20977238375483    0.11691260669194
O          -0.34449981943339   -2.13554700412415    1.09981313708343
H           1.16716700894037   -1.92417067746544    0.53302625973199
H          -0.45711738841772   -1.21237271808881    1.38006525770112
H          -0.95820670740094   -2.24011009776541    0.35778714780960
O           0.38789050693155   -0.39968733700556   -1.75294252180934
H           1.03245578482724   -0.84253692221122   -1.16607811450273
H          -0.44752052212055   -0.89686642746481   -1.65279327850373
H           0.02601740745823    0.96073432301852   -1.19611833481508
N           2.64861738034652    1.15234786109783    0.32435874527439
H           2.43465751371579    0.16114395025897    0.41795941786478
H           1.57183936864260    2.01693903043040    0.92564173235233
H           3.54855561433118    1.33055600786096    0.75061282983512
H           2.70614434992416    1.37037303991690   -0.66260753357751
