    26
        -50.45479402  Gyration_radius:  2.47190398096 Dipole_moment: 5.884
 S          -1.22278100815830    0.73082473432020    1.54804569262320
O          -0.94812466552208    1.78275898964808    0.44741401476168
O          -0.34625309856293    1.17913109144022    2.71780868902793
O          -2.59878247059639    0.77153173038702    1.90091462263315
O          -0.74469434131823   -0.55397438725827    1.06898399990826
O          -1.12379077017949   -0.90751222071816   -2.43434198187012
H          -1.53483277273215   -0.94596636413081   -3.29899638950834
O           2.49346973908435   -0.63257040591362   -0.44608298958123
H           3.23683749258210   -0.95495651965790   -0.95742999602825
O          -2.92461531735385   -0.81530596233325   -0.46599613506899
H          -2.22190170458532   -0.91169951492132    0.19949296385866
H          -1.85662372894403   -0.86247461470764   -1.77856106888427
H          -3.51367063296812   -0.15533187549525   -0.09086348241950
O           0.49223340735779   -2.30608859911202   -0.57193428053626
H           0.02146756162291   -1.88509599096959    0.16606403090884
H          -0.01483553897300   -2.05442096903032   -1.35790133018160
H           1.81337541906367   -1.36244710453209   -0.44919129885079
O           0.55220854336075    0.99937023935863   -1.44261500339067
H           1.30549334148521    0.48087671352521   -1.09642630408471
H          -0.02488066006109    0.35659307319523   -1.89975980617744
H          -0.32212848388251    1.46978672036156   -0.30046922337851
N           1.97963191410396    1.31440360818682    1.67410965840932
H           2.16743355305734    0.50749847577661    1.08194772915616
H           1.96887842569710    2.13970994442914    1.08781788888894
H           0.63731119420895    1.21253023040970    2.35066330643358
H           2.72957461221485    1.40282896774157    2.34730670335149
