    26
        -50.45479405  Gyration_radius:  2.47181802297 Dipole_moment: 5.889
 S          -0.97805224924967    1.79055115333165   -0.51440847646801
O          -0.20602978165506    2.97368386492618    0.07006630184368
O          -2.20912207734533    2.21869095223200   -1.08058976328431
O          -0.05820581158915    1.25951997230152   -1.63940311593266
O          -1.08922978391611    0.75622983340090    0.49876183183071
O          -0.98190596088397   -2.49901823458393   -0.89374737633525
H          -1.20732469461991   -3.25853123736407   -1.43261203775601
O           1.93195339851218   -0.85094347885302    1.53741744838852
H           2.50947124545246   -1.50174362369341    1.93849266153903
O          -2.83285388858897   -0.58047405338075   -1.03411504502822
H          -2.38594598910421   -0.07854653850140   -0.33106021346159
H          -1.70633473724448   -1.84407312891331   -1.01752492576061
H          -3.09339540739932    0.08988662704043   -1.67124623869048
O          -0.56747568526412   -1.57694449801940    1.75494044942860
H          -0.75145191263296   -2.12972265128061    0.98114538486955
H           0.99943586809087   -1.13452620962331    1.75018872797536
H          -0.90196041040534   -0.69827447298908    1.51096034440663
O           1.19832185651757   -0.87461646868687   -1.08710615568832
H           0.47472460645815   -1.53147148328002   -1.07971223725910
H           0.46609829007671    0.41233265912538   -1.40221139748148
H           1.54388610185598   -0.84985740277470   -0.17279017874820
N           2.04623421396673    1.94488427694035    0.69060900847081
H           1.92819882130831    1.04343414795945    1.14939810336903
H           0.72263762649676    2.59346101490745    0.38137724239534
H           2.61970198991492    2.53472823814640    1.27929868170811
H           2.52862436124791    1.79134074163319   -0.18612904433138
