    26
        -50.45567454  Gyration_radius:  2.46075685592 Dipole_moment: 5.088
 S           0.11546784997762    0.31598671312813    1.91709047915676
O           0.85543452103800    0.05880666887701    0.70604999957127
O           0.35552106427417    1.76276457290109    2.35779243065952
O          -1.39079955499279    0.28100918552828    1.59042761055666
O           0.40475604090923   -0.58002822039359    2.99459110989301
O          -0.10162684854161    1.31236990473521   -2.23538643139297
H          -0.21342983682452    1.43693847905486   -3.17900243171570
O          -0.23131118949763   -2.59387754629101   -0.86600376351799
H          -0.71249729296965   -3.41920851453237   -0.94492898541003
O          -1.73802176373582   -0.34782035186073   -0.82270221692298
H          -1.22875715678964   -1.18512320313527   -0.87691409035356
H          -1.56940394882765    0.02655150868851    0.60442750990452
H          -1.22541763666520    0.30550150579771   -1.34016909378101
O           0.94909648308775   -2.74435890102907    1.51398110599008
H           0.19821629000215   -2.61549567730904    0.02527426122132
H           1.89340389682358   -2.62779164547568    1.38745060140756
H           0.68728627005780   -2.04202593399878    2.14143891306647
O           1.59348345229061   -0.64000799076537   -1.75414970584441
H           1.58592647082520   -0.37692559449761   -0.81769216199400
H           1.07042601425872   -1.45342844518545   -1.76615010217875
H           0.62153803583377    0.63701970595888   -2.12517614920686
N          -0.40397551369022    2.94433953543401    0.21985568119829
H           0.09700527720697    2.32447866120738    1.51470904532791
H          -1.41535686099909    2.95698291365758    0.25824438110649
H          -0.07174490850300    3.88870304076997    0.07358536603577
H          -0.12521916455150    2.37463965873209   -0.57664335276844
