    26
        -50.45567462  Gyration_radius:  2.46075383778 Dipole_moment: 5.087
 S          -1.12640243783112   -1.14776956376831   -1.09616746692499
O          -2.63545885126294   -0.89904844818756   -1.01836521265918
O          -0.43171236093894    0.11381398565393   -1.01790192486332
O          -0.82525002547116   -1.95572886140807    0.18179805422848
O          -0.81649257159149   -1.92843494239501   -2.25464930939000
O          -0.19669939125718    1.81107038312326    1.84708784962622
H           0.11074691545410    2.41454114579622    2.52510332275131
O           2.72148283607735   -0.25741209176924   -0.24060703960357
H           3.53680775490111   -0.75041140840705   -0.13505243676301
O           0.81731164590689   -0.70936992652695    1.62661558434632
H           0.41298364707258    0.16709922490952    1.78685046058936
H          -0.15309230136700   -1.47069174646861    0.79974606275335
H           1.54818526661197   -0.55030459524873    0.99111298447424
O           1.20055264638252    2.11098142182904   -0.36058455741322
H           1.97950373614263    1.54666272850773   -0.25949032134793
H           0.55829234356428    1.53581326520435   -0.81105796039165
H           0.29952847535623    2.04597192603477    1.01651474969078
O           1.72179395985221   -1.12589987824877   -2.54856101986324
H           0.84140371669144   -1.54463061366439   -2.47704503449669
H           1.59252422492035   -0.36767673035475   -3.12276383122822
H           2.31676385347121   -0.58164416104812   -1.08346787602725
N          -2.70053433329634    0.36083582483662    1.20714863300785
H          -2.75044417649135   -0.34881659094425   -0.13697335666804
H          -2.64113711383903   -0.34981019933915    1.92549390991481
H          -1.86803892554924    0.94365366707377    1.26978932868891
H          -3.51261854351067    0.93720617480718    1.38542642756680
