    26
        -50.45567462  Gyration_radius:  2.46074375366 Dipole_moment: 5.086
 S           0.56431930004811    0.70255353750445    1.72515876134751
O           0.60780580887606    0.08536111882538    3.01540627064790
O           1.48561836225529    1.92550260469478    1.69618572452953
O           0.90040427160778   -0.17219674267316    0.62870547272509
O          -0.83534026439714    1.29629574093862    1.47003142847259
O           0.11047859487239    0.58555879570067   -2.52489531208318
H          -0.09140536356932    0.50233732065891   -3.45801780849736
O          -1.48809470920458   -2.30541591415849   -0.02712617126983
H          -2.28837544431542   -2.79742691347235    0.16370176378669
O          -1.82459464361445    0.31110092698481   -0.62516496455744
H          -1.75186550514342   -0.64945597032686   -0.43704026837700
H          -1.27080321973733    0.91296661379224    0.61424569310824
H          -1.17266186148575    0.49049829855650   -1.33239302033916
O          -0.11217350733538   -2.37799891263854    2.24920961948186
H           0.75094947388420   -2.75536952154075    2.06513335157061
H           0.07109752792695   -1.50107417435964    2.64027502680827
H          -0.96861618786977   -2.29707404983285    0.81515133667465
O           0.83018110470374   -1.73724467706264   -1.52341994723631
H           0.47061710810056   -0.29652636631767   -2.23600324146977
H           1.09704192676475   -1.27215292182052   -0.71181203292251
H           0.00937462308169   -2.18228767354085   -1.27113063555253
N           0.97060876414229    2.73527415649301   -0.67523310791604
H           0.83375910745735    1.91973400614757   -1.26924292511555
H           0.08888112777277    3.22811036068001   -0.61052764949237
H           1.36085897307114    2.30655814448502    0.73082228868322
H           1.65193463207361    3.34237222230799   -1.11201968303476
