    26
        -50.45567454  Gyration_radius:  2.46079714515 Dipole_moment: 5.087
 S           1.35409218990585    1.10200969475226    0.86018956129431
O           0.80674650251926    0.65275236390097   -0.39632678982523
O           1.45376112477538    2.52323755624316    0.99336898022071
O           0.49926777708252    0.52253317069201    2.00481958408967
O           2.72655966571041    0.45677064714193    1.07263075018199
O          -0.37896661835584   -2.44274308828722   -0.78690168125733
H          -0.87105557306372   -3.19356115677678   -1.12232656114352
O          -2.41786963915713    1.15703224145597   -0.58997452469446
H          -3.25094977113264    1.55396882150572   -0.33050434768390
O          -1.45538109466621   -0.75512155519288    1.06341599236695
H          -0.31345274429323   -0.01053467437153    1.65241881732836
H          -1.85804759274330   -0.08127147979277    0.47419184694089
H          -1.06661552276244   -1.42675617664228    0.46750720284454
O          -0.75804942007424   -0.33307861844830   -2.31079063475338
H          -0.04732570581157    0.11356503709409   -1.81929072209858
H          -0.48313497440028   -1.71598746604035   -1.45935130815980
H          -1.56301343353127    0.09012312592824   -1.98162493265639
O          -0.67494346210786    3.16548196452951   -0.49950350082367
H          -0.25911682182291    3.23992780142421   -1.36135608229580
H          -1.74593319211396    1.88186838706575   -0.54040997331555
H           0.06229423218880    3.03435842831185    0.12882418512682
N           2.02835729848292   -1.99694182239396    0.88313213274996
H           1.62552955882705   -2.23716875326825    1.78010767010652
H           2.53643151044408   -0.56674175671736    0.97628332893516
H           2.75451291555423   -2.66599924721387    0.66251640426688
H           1.29630279053893   -2.06772345488045    0.17895461225465
