    26
        -50.45567460  Gyration_radius:  2.46072058506 Dipole_moment: 5.087
 S           1.88851022568061    0.33343862749942    0.33164863624054
O           2.80401573245077   -0.89383438976306    0.36042196166067
O           2.54688135756595    1.45153617376964    0.93492858522052
O           1.67687987260112    0.59332307137461   -1.17311781530783
O           0.61794902535342   -0.00694659320743    0.92341678921080
O          -1.59727376033061   -1.93254321539380   -0.66598922931283
H          -2.42175286495715   -2.34127924886231   -0.93347658443667
O          -1.72576705049276    2.12983777974509    0.13156764248005
H          -2.06333776752625    2.96586127766937   -0.19408515542891
O           0.35035587081868    2.80594300595968    1.65230344501184
H          -0.93472791993311    2.35380252057808    0.68240757859711
H           0.20900380822938    2.44343318534976    2.52974653523086
H           1.20575111159529    2.43539346706273    1.35811163286814
O          -0.76996536812073    0.43042327325799   -1.74351971051026
H          -1.05094922537077   -0.45693151912648   -1.44168929354974
H          -1.15816421087653    1.06268252332081   -1.10096902865302
H           0.68043441646551    0.53275515292493   -1.44225483113085
O          -1.97354879024968   -0.36668772845425    1.41315853939719
H          -1.00722153592125   -0.28869393748728    1.49294196526094
H          -2.24204953974303    0.49037585173983    1.05424719113407
H          -1.78892683328351   -1.44057977455923    0.17807476629984
N           1.29623882517332   -2.52461891393723   -0.90914847048466
H           0.33008237676219   -2.33737629418407   -0.64794272912103
H           1.40718836496969   -2.29395809631612   -1.88848011948882
H           2.24128233507754   -1.63354555035490   -0.11801493175298
H           1.47911153405502   -3.51181062863936   -0.78428737946105
