    26
        -50.45567461  Gyration_radius:  2.46069030884 Dipole_moment: 5.087
 S          -1.11183103351337    1.54581097383623    0.40301316374942
O          -0.77789376105289    1.65230512482075   -1.09823141765702
O          -0.40225339762687    2.75601705748092    1.01705928472109
O          -2.52505500020492    1.65287138925231    0.60026336892390
O          -0.52262399236311    0.33561448332705    0.92132005863775
O           2.49644744281145   -0.70190932312257   -0.05251259574778
H           3.24981693526873   -1.26436623721317   -0.23815779276381
O          -1.23673694224339   -2.27194224534627   -0.91610067822049
H          -1.73106918380520   -2.75727708748656   -1.57874603078155
O          -3.09650208583959   -0.96022882647781    0.46254439509820
H          -3.00758014618548   -1.20027641308010    1.38763009677621
H          -3.00542936243508    0.01279396166344    0.44175035995660
H          -1.90709085535897   -1.75459784177666   -0.40392833476590
O           0.61689234957832   -2.05470273887568    1.19378156979216
H           0.08868030082798   -2.47359623878745    0.50025995229417
H           1.87298206894330   -1.24277899715909    0.50427978303247
H           0.15723400675296   -1.21255238904651    1.35415749126615
O           0.47364305298870   -0.39757364747831   -1.85358759764171
H          -0.26157145334013    0.82502018884810   -1.44170351190651
H           1.25482112495359   -0.45857091713104   -1.26752181674748
H          -0.13290758321605   -1.11088526758040   -1.55935726708016
N           1.99088420319645    2.19598174419556    0.30697901166387
H           2.06010195740819    2.47391616755941   -0.66386694153653
H           2.73947526889782    2.63616459665126    0.82605943002631
H           0.60618058036272    2.58863170411943    0.79887775528049
H           2.11138551519987    1.18613079880831    0.35573827365220
