    26
        -50.45567457  Gyration_radius:  2.46073740567 Dipole_moment: 5.087
 S           0.69060091909912    1.80378763830870    0.23886839531512
O           1.38831387734888    2.09747928017874    1.57000826029458
O           1.02233080120229    2.81066404878108   -0.72224421632047
O           0.99832766789758    0.45594213268000   -0.17217799630268
O          -0.80855164174507    1.88123561141522    0.58991832780300
O          -0.35887415465845   -2.19153239387433    1.34002725783269
H          -0.67912285554504   -3.07895889793085    1.50840816616991
O          -1.08434820189631   -0.65165947945812   -2.43558096282372
H          -1.75740319297335   -0.56319988217570   -3.11239107481717
O          -1.92356084270371   -0.32583376094388    0.11534871290012
H          -1.66963561725975   -0.47049755006544   -0.82163327690105
H          -1.42043896877213   -0.98916909545069    0.62943248117033
H          -1.29764156666960    0.98889373352184    0.40746114889518
O           0.86556133070925   -2.07560225119626   -0.98458113236672
H           1.17053542173029   -1.18303623386011   -0.74679608016339
H           0.17749062063973   -2.24089621983024    0.50269141580894
H           0.17360316253773   -1.91231426382847   -1.64029253320515
O           0.60610723766898    1.34414106866771   -2.92432440159670
H           0.70056902165943    1.98384863376128   -2.19123013113327
H           1.48218623122038    0.97106564667737   -3.04543379544070
H          -0.45410074743819    0.09725205425068   -2.58159149473369
N           0.40773075899136    0.17731604184924    2.94686464762882
H           0.31726847710984   -0.63668035836525    2.34192242085954
H           1.06365075088177    1.32519140272459    2.19530056127828
H          -0.52223144704800    0.47717257131046    3.21102583347240
H           0.91163296801703   -0.09460946715373    3.78099948638199
