    26
        -50.45567435  Gyration_radius:  2.46083833446 Dipole_moment: 5.092
 S          -0.69929147930285    1.67699976519473    0.69739735787097
O          -0.26197486212247    2.95311343493255   -0.02741124844403
O          -1.84496015991952    1.94330499042388    1.51230340911468
O          -0.88009694908300    0.62039829456895   -0.26759545875015
O           0.51204944961356    1.33037130174888    1.58573952809817
O          -0.89760831868344   -2.33614328277133    1.12718331055962
H          -0.96722312652807   -2.94826124633135    1.86166299201011
O           1.71457059834027   -0.87825048919434   -1.73650839072200
H           2.25295572154543   -1.52815905817488   -2.19059237345230
O          -2.81910126228222   -0.55051680460930    1.57314473184252
H          -2.50159124936083    0.36727997571511    1.68429652937076
H          -3.38954907713253   -0.52632813409900    0.80157828764431
H          -1.58908084781882   -1.64580931680533    1.28413465608305
O           1.41308749161542   -0.93885217202603    0.97153216895632
H           1.61146229082525   -0.89169798231202    0.01452543483724
H           0.90863496727755    0.40295589519629    1.35856485477093
H           0.60527132021342   -1.49135067188348    1.04642734165079
O          -0.78788941991135   -1.67655962271480   -1.60968277290437
H           0.77244934099070   -1.19075075271847   -1.81404328991888
H          -0.84867890461929   -2.23244328750802   -0.82057394724543
H          -1.02342994158039   -0.79064452587407   -1.28419881269949
N           1.81615856907872    2.03513773448833   -1.20333398535131
H           2.54772538221116    2.02754064175952   -0.50388283000711
H           2.14600207155682    2.54271227466469   -2.01400416416307
H           1.63008437111237    1.07205913051184   -1.47644278112794
H           0.58002403397671    2.65389391781252   -0.57022054802922
