    26
        -50.45352282  Gyration_radius:  2.60017726266 Dipole_moment: 4.455
 S          -0.88074419669265    0.31483111833013   -0.25183217293088
O          -0.60271740548219   -1.11110701267930   -0.20618930898655
O          -2.39739072605578    0.52292247710343   -0.42352608114717
O          -0.45105427953807    0.98956616104767    0.97046082541674
O          -0.25245972728448    0.94450479432874   -1.42636183293382
O           2.96625420217053   -0.74019175170561   -2.09148323642901
H           2.06428146813793   -1.14528297038358   -2.25583393323416
H           3.43758468323719   -0.77578291688731   -2.92584820953773
O           2.04684218247154    1.53664872762693    1.26156351140243
H           1.08618671348384    1.26782671995159    1.24472189702860
H           2.07334004703220    2.39815334177368    1.68336759150711
O           0.50846593562581   -1.45967695092013   -2.55362243388273
H           0.11791537879885   -0.64853507825638   -2.89677616063465
H           0.11483487399069   -1.53548498671212   -1.65622966249594
O           2.14733549027434    1.50289485848394   -1.26491171866139
H           2.58007703430224    0.61674478426930   -1.58827917125893
H           1.09856337034331    1.33460971083362   -1.37818809216960
H           2.25895767057609    1.54571463078012   -0.24084185588964
O          -3.01403628363614   -1.55879865020459    0.90211643854614
H          -2.81108299257250   -0.25762228236386    0.06834755274569
H          -2.17998385481283   -1.91416069269161    0.56068271924577
H          -2.79225237800693   -1.21781236274368    1.80474111612587
N          -1.94907954411951   -0.32354803372563    3.03223364709978
H          -1.36595998721292    0.21089359887718    2.38690928588756
H          -1.33184046315208   -0.83401218759867    3.65123643120264
H          -2.47203718188505    0.33670495347526    3.59354286398919
