    26
        -50.45567451  Gyration_radius:  2.46079654963 Dipole_moment: 5.087
 S           1.11642830229427    1.57743139179837   -0.23294121919194
O           2.02878681194553    1.92857090985145   -1.27786774481451
O           1.42552230046405    2.38801593487015    1.02896426331410
O          -0.31220302293946    2.01939673576597   -0.60791936024977
O           1.09229946117736    0.17372686196115    0.09780224239288
O          -0.43105711549938   -1.60633275042465   -2.18294881457032
H          -0.79909316843034   -1.77058669655574   -3.05273668639315
O          -1.42720524158883   -1.18363587956327    1.81392443470253
H          -2.04810493463696   -1.82224515864832    2.16750482611075
O          -1.86488386508050    0.03748380382593   -0.58307547951585
H          -0.97739445696198    1.22807103286503   -0.60611895254779
H          -1.39491092331695   -0.58037377249468   -1.18365798276407
H          -1.78076614864442   -0.35055953282397    0.31123838798683
O           0.42400532784294   -2.38721363728382    0.38509823106863
H           0.90625959216333   -1.54307322063446    0.35248174622969
H          -0.70388215026554   -1.70875360125199    1.37548325661784
H           0.05604352328351   -2.47365499662046   -0.50515612035287
O           1.86738411921218   -0.35588069249400   -2.66623228478938
H           0.41605111735466   -1.11810899510671   -2.33589811142185
H           1.92942410142072    0.54123342925357   -2.28298459368331
H           2.57289277044717   -0.85560350691892   -2.24927200113377
N          -0.48283803502484    1.53915494445113    2.50600504355945
H          -0.37129625578956    1.64370417174405    3.50613956897386
H           0.69852488276974    2.07208927462873    1.71058858371527
H          -0.63515960277447    0.55436706858688    2.29716275439799
H          -1.30482738941310    2.05277688122098    2.21441598235646
