    26
        -50.45567458  Gyration_radius:  2.46070596109 Dipole_moment: 5.088
 S          -0.17930413297715    0.00689612926135    1.93791928488050
O          -1.30525193754059   -0.28347095096640    2.77186836385512
O          -0.20509311445982    1.48814983083846    1.51160826610789
O           1.11700260159853   -0.11382927701806    2.74424297104449
O          -0.08108641074487   -0.81144309223432    0.75425168950169
O          -2.29487271455177    0.01334331983303   -1.50517328545764
H          -3.09607907580622    0.43389069948119   -1.82166647109833
O           1.83331625560341    0.07011778362999   -1.83360434252761
H           2.19012083513418    0.13904832062935   -2.72034889728706
O          -2.98825331559913   -1.04873611529088    0.83394563483197
H          -2.48419250493376   -0.70791045626983    1.59900635482819
H          -2.52147734271764   -0.36958646013619   -0.62124405839213
H          -2.79432022560413   -1.98837415624254    0.80491455197129
O          -0.21328740468189    1.66550789001519   -0.99988334978816
H           0.57569576341872    1.17069130932003   -1.30007912031672
H          -0.98205714223474    1.09982062903468   -1.22862509424922
H          -0.20787059581046    1.59731788296864    0.48350460103122
O          -0.08920085329997   -1.72226408859329   -1.74687880042867
H          -0.07509463512271   -1.64818768759456   -0.77704978639677
H          -0.89798202743358   -1.25554688916146   -1.99887304868350
H           1.18933621046767   -0.68904158355835   -1.84851143310717
N           2.76584593281118    0.60977755582655    0.92700932456299
H           3.73186056768760    0.33391027032583    1.04668362010633
H           2.71655066870651    1.62044806838886    0.89916098097697
H           2.43411118239532    0.25252786067503    0.03311338714164
H           1.86158342569372    0.13694321683164    2.05470864689518
