    26
        -50.45567460  Gyration_radius:  2.46076585398 Dipole_moment: 5.087
 S           1.18589434649471    1.40235977189827   -0.64393493297909
O           1.95164316394610    1.49676778647505   -1.84903987497208
O           1.74550749011806    2.36133565452619    0.41076220264378
O          -0.24516983854737    1.92263174830573   -0.88475849897361
O           1.10552512821803    0.07507805095222   -0.08519837095962
O          -1.22068016375569   -0.74141325827142    2.16569829962941
H          -1.82679045580760   -1.25251905572820    2.70400840359746
O          -0.87932689947654   -1.87187272372793   -1.80387810007612
H          -1.38715918956697   -2.13039725679315   -2.57473670490369
O          -1.92334121066908    0.13319607276916   -0.31839990352582
H          -1.73455282914110   -0.11919205504010    0.60790637006022
H          -0.96106110888687    1.21117107288660   -0.66047564744110
H          -1.59866546655105   -0.61349710140227   -0.86645872243267
O           0.29352494139779   -2.32966103446324    0.71635890233186
H           0.82869266867500   -1.55346302524713    0.47687603023497
H          -0.61488486501875   -1.39753466046528    1.72546074182504
H          -0.21090380473935   -2.51498838193492   -0.08779793536026
O           1.40676873876384   -0.94612540578955   -2.80236796081990
H          -0.03067549476959   -1.50001424683155   -2.15151759386429
H           1.59466224183389   -0.01158846081141   -2.58582834588861
H           2.12769215956373   -1.44385793057537   -2.41013041813964
N           0.02223042940011    1.94742797147533    2.25562902001437
H           0.29090637906614    2.19445772186194    3.19921579060075
H           1.10768567369141    2.22931911125733    1.22842978342123
H          -0.23552984356418    0.96251244024233    2.23818595777058
H          -0.79199219067810    2.48986717441376    1.99599151821484
