    26
        -50.45567463  Gyration_radius:  2.46076327104 Dipole_moment: 5.086
 S          -0.74242552836033    1.49101157214900   -1.00673177760313
O          -0.65510868496601    0.85223279671923    0.28347050849935
O          -2.07666627947053    1.73883414583904   -1.46055163575936
O           0.05420025979983    2.79857859722940   -0.97790045912912
O           0.01406023735924    0.62758874742070   -2.03577167753836
O          -1.47294669480144   -2.31017163037143    0.15466802380579
H          -1.86895522640470   -3.08850138067111   -0.24072930914158
O           2.14250853474230   -0.65261044914604    1.30926643430214
H           2.74579338821973   -1.23001139427404    1.77940268837549
O          -3.24064999542296   -0.37271239559075   -0.29445097985625
H          -2.89929276485089    0.37207177383600   -0.82764895634115
H          -2.10281848469941   -1.56743322719204   -0.02119078451613
H          -3.48201627621943    0.01399345619811    0.55022600098654
O          -0.29355845345176   -0.87729063372298    2.27422904818588
H           1.27054046113686   -0.70958817574120    1.78642572424842
H          -0.54623089284759   -0.10635603656473    1.73750713988667
H          -0.69594517712867   -1.62193235855873    1.80629649999659
O           0.85459858723718   -1.48052827561621   -0.94571678857537
H           0.37456491833979   -0.24756046712015   -1.61981543520868
H           1.39708939698306   -1.18502273038268   -0.18696625698025
H           0.02732477165895   -1.83645682252319   -0.55551576863446
N           2.32148284996184    1.84892966477348   -0.26935976931952
H           2.72894423132438    1.45827588984747   -1.10949230173713
H           1.00469798474674    2.50227882304099   -0.65919154022309
H           2.15901842529618    1.08729734647645    0.38656207516416
H           2.98179040181474    2.49508314393385    0.14297927711074
