    26
        -50.45567462  Gyration_radius:  2.46074653821 Dipole_moment: 5.086
 S           1.30557236362462    1.34568061376288   -0.52208059045617
O           1.34997645766364    2.61959584915347    0.32664790855299
O           1.03885487732836    0.21428815132902    0.33179714396596
O           0.08884428006730    1.56513787596703   -1.44298142320211
O           2.49891708021390    1.23469253521860   -1.30385929791608
O           0.00049263654667   -2.38776295285267   -1.35234873037041
H          -0.13494920710592   -2.91152297527000   -2.14375620518762
O          -1.98597733313257   -0.32272044075179    1.63757835249625
H          -2.74567591387300   -0.75981628585851    2.02512277961180
O           0.03725388883812   -1.99062836000938    1.43644227546126
H           0.60108956105302   -1.23329534220766    1.20244824676187
H          -1.23365310534858   -0.97313279282408    1.68507234555909
H          -0.08345587713337   -2.45272072513751    0.59541289895903
O          -1.62164297894022   -0.24269098975992   -1.06241456607395
H          -1.07808416746356   -1.04977434412526   -1.19081022599559
H          -1.82607399011794   -0.21298471274429   -0.10603354391921
H          -0.63516444635091    0.83896077959814   -1.31119264340744
O           2.46726313123028   -1.42530879315707   -1.61481639000601
H           0.90590882987587   -1.99761948935158   -1.43805760013701
H           2.52195128574989   -0.44950475192906   -1.63298780963342
H           2.97514734526801   -1.69023602082417   -0.84466014290959
N          -0.97002652620123    2.45027382110159    1.39129273875001
H          -1.12372022311552    2.97292416747423    2.24376228015014
H          -1.16873929971688    1.46813047846330    1.57176369922657
H          -1.61891743837364    2.77764279313163    0.68681602850791
H           0.43480872941106    2.61239190160131    0.83184247120627
