    26
        -50.45567453  Gyration_radius:  2.46064767413 Dipole_moment: 5.084
 S          -1.26628428497180    0.15671967706523   -1.46954204626647
O          -0.80077308250483    0.73376521304200   -0.23235530575572
O          -1.30536352389861    1.06582096242973   -2.57390751140311
O          -0.37713632090988   -1.05492480515166   -1.81300195794561
O          -2.64951461137530   -0.46222899047316   -1.24887338016190
O           2.42536836468098    1.26013670918265   -0.24895599711584
H           3.28534608637527    1.36755501200739   -0.65874860346938
O           0.24712313483062   -1.16630011121698    2.30301341296486
H           0.69188467929052   -1.45473594446655    3.10135546371339
O           0.62533205863683    1.40662363647787    1.91221505629641
H           0.34365601619659   -0.17584528021379    2.27047849881726
H           1.46099300710506    1.48061506272400    1.43086360870092
H          -0.04263581483885    1.36816759783614    1.20613850700151
O           1.47914443057606   -1.27100845749329   -0.12606225870048
H           0.39702505969282   -1.17339641374467   -1.13787377344129
H           1.87560659752231   -0.37384391603228   -0.16120185428471
H           1.03574498690032   -1.32847261048630    0.74428741570228
O           0.76541444181171    2.59819237845235   -1.84049807911075
H           1.78443250953570    1.73054932332709   -0.83829441310202
H           0.05749128432379    2.05333659013924   -2.23737265876560
H           0.30830481085009    3.25526223615432   -1.31077082372830
N          -2.05237479596683   -2.05741624948587    0.66001092038221
H          -1.61213457358144   -2.85584144552132    0.22038248331393
H          -2.81281099309711   -2.38406172172839    1.24195318553408
H          -1.36110158578624   -1.60268035161679    1.25340144075569
H          -2.50273790140292   -1.11598809121873   -0.44664132993212
