    26
        -50.45352281  Gyration_radius:  2.59988525736 Dipole_moment: 4.462
 S           0.28821521459931    0.43370264861007   -0.81822050195861
O          -1.06133095038580    0.63943991276573   -0.31905030787796
O           1.27521339144357    1.16988453134347   -0.00920299088094
O           0.63627727336958   -0.98410637548449   -0.86835103669165
O           0.38958232460242    1.01761348219920   -2.24000419297562
O           0.15243423448610    1.17469714117867    3.50999203091326
H           0.39504132569229    1.80380605962952    4.19187957786952
H          -0.27465223687191    1.70313151327776    2.77306811698045
O           1.30861984583427   -2.16070802186711    1.31925860848182
H           2.01656843769837   -2.76258794851931    1.07990606123728
H           0.96783226564290   -1.78148230666583    0.46159409928422
O          -0.63952109797322    2.53647538906759    1.43876987747655
H          -0.99745320845560    1.85092625953164    0.83226706994739
H           0.19418824785569    2.78310196893415    1.02360830000679
O          -2.02568646328110    0.47524297441318   -2.82615811423508
H          -2.19112769409691    0.61240683450062   -1.88151095242834
H          -0.53195296611247    0.87572955620654   -2.63111587931783
H          -1.92784020395606   -0.50500228374030   -2.92526177117735
O           1.98978709462321    0.13971618065139    2.11835109629036
H           1.76229676951513    0.61132214985458    1.18768491997249
H           1.27302975909668    0.51182125864329    2.77056911235792
H           1.75601273992329   -0.84721390851154    1.93338958265241
N          -1.33183596025253   -2.10841853080939   -2.62356480747665
H          -0.58669594106488   -1.82142974617152   -1.98759523480639
H          -0.90552929883659   -2.61644006845357   -3.38819649917792
H          -1.93147291310002   -2.75162867059036   -2.12210617446246
