    26
        -50.45567443  Gyration_radius:  2.46056173045 Dipole_moment: 5.088
 S          -1.17935767829904    1.23915020544296    0.92799566215359
O          -0.51860988500204    2.05666857133065   -0.19972539813199
O          -2.60145389695314    1.38920532016458    0.87503094766838
O          -0.71535079699061   -0.12375584781116    0.84149815682690
O          -0.63044320613206    1.87947117607295    2.20628963361331
O          -0.99350308809919   -1.33458763989528   -2.18332798777498
H          -1.32641691010633   -1.35656432870961   -3.08204451542354
O           2.44812175632122   -0.85175965169940    0.06840312183385
H           3.22623512380921   -1.32195664119625   -0.23460974313041
O          -3.11706689278801   -0.70958051744987   -0.70730097152147
H          -3.22995108014223   -1.39447428584356   -0.04436655747794
H          -3.02849021657694    0.12229567919097   -0.20174008680429
H          -1.76310125150792   -1.07897927115895   -1.61602684214527
O           0.34481713381285   -2.43025039053610    0.04028075591642
H          -0.14212944372760   -1.74130700891435    0.52447208760481
H          -0.01451328801100   -2.37576888865839   -0.85602173037800
H           1.71901017569869   -1.52689383635437    0.13053347838316
O           0.87400308076464    0.55046307447025   -1.65910537226602
H           0.22001723936323   -0.14004969915641   -1.90181488618815
H           0.06256243544377    1.46696601810213   -0.81931073954697
H           1.50611376967163    0.11272596172264   -1.05387330919716
N           1.86303579366272    1.49558703890162    1.78078368831262
H           1.97402590298494    0.59508208293972    1.31883653457875
H           2.14343462522280    2.21870676929854    1.13031112307591
H           0.40183390908510    1.73518221865573    2.13052183103202
H           2.47717667849137    1.52442389106571    2.58431110897776
