    26
        -50.45489363  Gyration_radius:  2.43247290096 Dipole_moment: 9.423
 S          -0.08046337230673    2.17280265842914    0.20766399795250
O          -0.36011557673647    3.54703963843317    0.42053681486796
O          -1.39292546385936    1.37120229286224    0.61420919887378
O           0.14318309031067    1.80906488869751   -1.22070991796931
O           1.00617869048621    1.58859014092187    0.98308528934754
O          -0.67650810373495   -1.68636069833175   -2.05372382256916
H          -0.92472309390257   -2.26215476633218   -2.77751046200609
O           1.55537436306653   -1.44700196228816    1.53355364409853
H           2.38175756288944   -1.75964871397080    1.90371564876834
O          -1.95803167447563    0.58090863597480   -2.16476945798627
H          -2.59656541093082    0.70808536638206   -1.45780296677089
H          -1.20494213598550    1.17428674340978   -1.93064339940211
H          -1.20215124079634   -0.84241072022415   -2.17453258307755
O           0.43788624258102    0.30087414948896    3.13418697706446
H           0.67118356863137    0.96479911790315    2.43760408962133
H          -0.52122060368164    0.28245006072495    3.16425506783556
H           1.18582801483931   -0.80907551795853    2.20642869854519
O          -1.09382529808251   -1.27326561906848    0.65141809012101
H          -0.27563476323446   -1.57869839779182    1.06340565206586
H          -1.23100724182057    0.39968363832675    0.65191420084161
H          -1.08124506757939   -1.60600934127540   -0.25876307398226
N           1.46562824440302   -0.34608138425836   -0.98822606857815
H           0.97106507224115    0.63558897492491   -1.06517463095714
H           2.37775214730134   -0.30343668350921   -1.42994522977614
H           1.56073512989098   -0.60216713909361    0.02008770292085
H           0.84278691048027   -1.01906538237779   -1.47026347984586
