    26
        -50.45489342  Gyration_radius:  2.43252418035 Dipole_moment: 9.418
 S           0.74804033348231   -2.01966777199408    0.36306122247566
O          -0.16638827309475   -1.82176151202778   -0.92338428325502
O          -0.02364987786634   -1.51038542554029    1.48930829915788
O           1.11318841316352   -3.38995429923116    0.39650499034047
O           1.89163514791059   -1.08807061432760    0.14648995061921
O           0.98022669820706    2.09594539810538   -1.46994061580425
H           1.33088905500841    2.81609335282569   -1.99476412583790
O          -1.74340928272172    1.10643149542521    1.61515282617378
H          -2.07378367042111    1.45903247860883    2.44227160862010
O          -2.58015613744415   -1.35265906518372    1.27090178739740
H          -2.76666448025627   -1.60574059867885    0.36409610586553
H          -1.63720648453374   -1.60837639303939    1.43187472052606
H          -2.12162184136302    0.18517283820440    1.54800739663796
O          -1.30398494692514    0.57805228481898   -1.09845950960198
H          -0.59779817384417   -0.93566261080248   -0.93196099832524
H          -1.67385943634105    0.91022284669903   -0.27075237373994
H          -0.63926958105407    1.22526471653763   -1.37893985133887
O           1.86562094354104   -0.20701156794657   -2.31067206281928
H           1.19380137788943   -0.76380090948362   -2.71359166103783
H           1.37265622941567    1.25608426178686   -1.84927464496986
H           2.03434210187266   -0.61773625891830   -1.42925790204841
N           0.95602239814544    1.08100139116021    1.07779150480906
H           0.99282701199929    1.69262254230392    0.24254453499204
H           1.37327306959986    0.11082749707948    0.76342788009382
H           1.50978618447188    1.45938987309544    1.83875733570157
H          -0.03451676885125    0.94468606050967    1.38080787537100
