    26
        -50.45489326  Gyration_radius:  2.43263239893 Dipole_moment: 9.414
 S          -0.23283819907009    0.14794269724587    2.16666279789452
O           1.16755645051368    0.12527468023596    1.76458613537039
O          -0.86829316207872    1.32514816659543    1.50883144354198
O          -0.91317952347069   -1.10678029335176    1.46405031881594
O          -0.50926353967860    0.03794581629900    3.55358027069798
O          -1.54293016899329    0.88042803290594   -2.08777774923244
H          -2.09658665405396    1.18874286619450   -2.80572623974987
O           2.34652200175108   -0.45178741567507   -1.07921732721092
H           3.26225885081743   -0.27059419247009   -1.29403687372886
O          -2.92385026513015    0.55044314598543    0.09826619076074
H          -3.01698071180045   -0.36641725871090    0.37105310105326
H          -2.27068311645008    0.93383859355236    0.73104113041972
H          -2.14307898721180    0.78820087739886   -1.29119868145528
O          -0.29254613898508   -1.38736757449548   -1.10969441330023
H          -0.62935093623227   -1.19669193830161    0.52466284208732
H          -0.78757433995871   -0.73564996357249   -1.62880873960472
H           0.63997893899439   -1.24845847441325   -1.31778075720213
O           2.19417951661324   -2.09040132863514    0.96025126012950
H           1.46156106776012   -2.71019173763992    0.94209246568691
H           2.37391757987972   -1.09472394330690   -0.31634003123641
H           1.86623922248031   -1.30256597953132    1.46250595579483
N           0.60194160007381    1.60843324042062   -0.54216300001517
H           1.32009550124884    0.85038333746836   -0.57703328280802
H           0.03471222568523    1.52383609941866    0.39854434713174
H           1.04597188985647    2.51909059938425   -0.59157569714772
H          -0.08777909254937    1.48192193702274   -1.30477544668079
