    26
        -50.45489317  Gyration_radius:  2.43245946055 Dipole_moment: 9.414
 S          -1.23910627230641    0.54050604567976    1.71556465483689
O           0.05495110770824    0.00663892438960    2.12030062203548
O          -2.20512485475567    0.73631953334879    2.73561173884038
O          -0.98325738311687    1.74607518656925    0.87683078527476
O          -1.85455846989993   -0.51847497170211    0.70044989996249
O           0.17315647825219    1.00659584224269   -2.54426736007985
H           0.21663081363954    1.36580342681354   -3.43087756627880
O           2.22940485265307   -1.34421820879076    0.31442298173320
H           3.11954821445755   -1.50168564058888    0.63124283801655
O          -2.14382183428138    1.47444378070359   -1.44548467406838
H          -2.68090767746622    0.68934173185759   -1.30807699217772
H          -1.82090112930493    1.71660277902786   -0.54482446621132
H          -0.73706834889789    1.23480361571101   -2.19402692989794
O           0.48421497261315   -2.51655846106945    1.87845589081251
H          -0.29970114982128   -2.86006105270301    1.44410713522003
H           1.63159839075407   -1.83834309768749    0.94264115193264
H           0.25011685762695   -1.59874086014912    2.16707951876642
O          -0.15136755310070   -1.36853837583261   -1.16054789752298
H          -0.04221238519779   -0.67783906440692   -1.83161332927453
H           0.73414101239763   -1.57289377284983   -0.83457449574246
H          -1.18355126015373   -0.83513942189787    0.05180504812264
N           1.31805112083494    1.22499808904309   -0.06205837955145
H           1.12392526649535    1.21535121862863   -1.07965621957751
H           1.62999999400184    0.27908059443740    0.25382853099357
H           2.01311334717593    1.92446687796237    0.17578995326496
H           0.36272587970333    1.47146528127219    0.42787754057429
