    26
        -50.45731620  Gyration_radius:  2.4444911246 Dipole_moment: 6.859
 S          -0.85534170334310    1.61804963760020   -0.80870665194480
O          -0.10325663024432    2.27684646802038   -1.85379949616453
O          -1.58326494562599    0.45179653240208   -1.27748321312140
O           0.05769308316662    1.25772530730124    0.30621925580537
O          -1.87798908968928    2.62547152055835   -0.20133998702611
O          -1.22783019561477   -1.69566817491763    1.95048885684626
H          -1.39737415148684   -2.27386159557886    2.69489969481279
O           2.09130989738171   -1.43439243834081   -0.93883286836009
H           2.42969643747206   -2.11435903370809   -1.52287342871182
O          -2.84896073501872    0.48233453498234    1.06788277510408
H          -2.35497682448355    2.07845845389397    0.45556021601500
H          -2.70024231576727    0.22716349427854    0.14389868076514
H          -2.33951417139302   -0.16681664843735    1.57730655548100
O           1.21001338702779   -0.62861967869302    1.82471741334837
H          -0.31944610668524   -1.33138242184031    2.06795229622722
H           1.69175546918853   -1.07043349682511    1.11647102443332
H           0.77192235810652    0.13494262801622    1.40473878966072
O          -0.44777860140387   -1.86385792314330   -0.75138462449554
H           1.10040112419182   -1.60985862933169   -0.87193952640805
H          -0.78091767200348   -1.99025498601583    0.15140428442827
H          -0.89343742024978   -1.04603123659208   -1.06210913872704
N           2.13730955007559    1.21818590115501   -1.11616432351925
H           3.00918766930532    1.71761492615467   -0.98064780407643
H           1.44038827360890    1.30652096400564   -0.29331885002004
H           1.52294807525124    1.64723195113672   -1.84253328569492
H           2.26770520823271    0.18319393391884   -1.24040665465779
