    26
        -50.45734426  Gyration_radius:  2.52348731874 Dipole_moment: 7.787
 S          -0.69558841434311    1.71213909325876   -0.60177621028477
O          -1.41647992481708    0.47006194410598   -0.29309593443076
O          -1.43957256816596    2.90390023413215   -0.39569482415041
O           0.59119286095600    1.68015240372326    0.14177828541656
O          -0.27553949908056    1.61319978184331   -2.11779057941315
O          -1.09531716737208   -1.45347805486257    2.76210196385008
H          -1.02499831375070   -1.30974318384869    3.70755923487502
O           1.85650202045950   -1.58480235863628   -1.09402577683825
H           2.53134975090763   -2.17786801852210   -1.42605264517751
O          -2.74424829705732    0.42052559660802    1.94821158201440
H          -2.27440317848766    0.55750081265086    1.09164025027910
H          -3.67653996525290    0.38281458711932    1.72918579251510
H          -1.80531747484052   -0.83484727257054    2.45364321953976
O          -0.58922099358805   -0.97702635254904   -2.30166588077453
H          -0.38844275174413    0.66103925296098   -2.36125346135696
H           0.22114337833939   -1.38607869503637   -1.96022907720513
H          -1.11502976448856   -0.73417432099859   -1.51596077441688
O           2.42924342157088    0.92338218176223   -1.56573847654124
H           2.11417316037765    1.25790208191757   -2.40962762396848
H           1.82615134480429    1.33238759521118   -0.89951242079479
H           2.14937921424404   -0.65863105494697   -1.32583944668081
N           0.96745107032429   -0.57648949674911    1.30087139286276
H           1.76158950975360   -0.47048264837096    1.92481173943285
H           1.22577042564742   -1.18785942223422    0.50733514386506
H           0.13574975050366   -0.95735085927292    1.82894110258943
H           0.73100239511472    0.39382614331800    0.87218342472686
