    26
        -50.45489365  Gyration_radius:  2.43246189036 Dipole_moment: 9.422
 S          -0.31596916652764    2.14509232304800   -0.26382909679729
O          -0.66387353453508    3.47298867992748   -0.62116883460557
O          -1.06326442574834    1.18538702697879   -1.28886614250177
O           1.09504473521990    1.78742878363020   -0.33099665737220
O          -0.82232306767269    1.71960049895870    1.07224964640664
O          -1.36689160444026   -1.90929249888234    1.41778116144141
H          -1.85987401768467   -2.56467302735791    1.91220540178186
O           2.34176124964242   -1.08513176089827   -0.44481994719992
H           3.27712187567678   -1.24586248160216   -0.31483357484363
O          -2.86826885574974    0.12447938563063    0.78155726733956
H          -2.21533681722181    0.83997652208841    0.97072368351118
H          -3.04853751014872    0.20246205270807   -0.15924799237480
H          -2.00826409500355   -1.16520253699609    1.22254786464188
O           1.96644383421806    0.58448138884289   -2.42909365938938
H           2.28326476086547   -0.46374465707138   -1.22375810193780
H           1.18575646138918    0.42504083637849   -2.96412806073216
H           1.68461890097104    1.22507257464124   -1.72860162138361
O          -0.36006950133526   -1.37503102941914   -1.10531287883681
H          -0.74884137968054    0.25424079609706   -1.21407637418839
H           0.58974142586769   -1.52349120975305   -1.01391440431302
H          -0.77355520393925   -1.76524733717945   -0.32046665315900
N           0.75901021008735   -0.18930116132640    1.62260009742472
H           0.14368578387622    0.69853595971773    1.40475624970182
H           1.41114278249570   -0.35663936728667    0.82392624120294
H           1.28041190351939   -0.04032858151534    2.47983529884018
H           0.09706524586065   -0.98084120935821    1.71493106734674
