    26
        -50.45489351  Gyration_radius:  2.4324837186 Dipole_moment: 9.419
 S          -1.62530733748001    1.34170373936436    0.57276124581742
O          -2.54395598122008    2.26183693464580    1.13975642902502
O          -2.12702139413933   -0.06065695500259    0.50763714297274
O          -1.07787376519174    1.67173426098534   -0.73672693223693
O          -0.38323083271958    1.26680916054010    1.56373574745557
O           1.49088316844505    0.50134743820585   -2.09648455016788
H           1.68456541624090    0.63841824324024   -3.02453675129132
O           0.51503522385213   -2.62968229871281    0.57857397076599
H           0.68526378873206   -3.54649549991381    0.79649277164712
O          -0.99687252490775   -1.49485499349892    2.37326067201835
H          -0.07388635560169   -2.27368230606985    1.30637534647200
H          -0.55092633029036   -0.82334883639332    2.89663707770298
H          -1.57895339871637   -0.98678256011205    1.75916696850889
O           1.22792425836512    2.80075954600594   -0.86785153716878
H           0.26733308798114    2.56713098723308   -0.81174417906229
H           1.54246883784790    2.82584194329857    0.03855882253944
H           1.42907980848196    1.41490479303048   -1.69918759658341
O           1.68447087276698   -0.12150560916553    0.62489324914941
H           1.89964461951524    0.05317942902789   -0.30007485625312
H           0.37343540947560    0.77697186948754    1.16501080462015
H           1.48511327005085   -1.06812670637974    0.68417555962112
N          -0.65735559340125   -1.03481207156766   -1.31951737199594
H          -1.34383618012435   -0.56778490620846   -0.59506039508110
H          -1.18622701597247   -1.39480635324122   -2.10667293269670
H           0.03560494516515   -0.32232612489446   -1.64135293585753
H          -0.17537598715481   -1.79577312390233   -0.80782576991959
