    26
        -50.45489352  Gyration_radius:  2.43235416654 Dipole_moment: 9.420
 S           0.39121122858999    2.08036995538598    0.53759910461931
O          -0.74937570238967    1.55635323347130    1.34194472118613
O           1.54014446036718    1.22260341101117    0.79727786802535
O          -0.03389216883690    1.80360643173727   -0.97009128068740
O           0.59000945402575    3.47998643266842    0.65426379369430
O          -2.29120537438560   -1.50543092277501   -0.01117237791480
H          -3.10155989291406   -2.01565123008903   -0.01841549897780
O           1.93269448275489   -1.76947806428089   -0.04743802852330
H           2.63611217363515   -2.31245758575084    0.31040085057054
O          -2.77732395380252    1.04693881406935   -0.22103509797546
H          -2.12120541770478    1.36540143144406    0.44386456626123
H          -2.48982803192078    1.43573236348208   -1.05163966058696
H          -2.56462901850756   -0.54477786127782   -0.08595345969615
O           2.92137900608151    0.36830728943180   -1.19552988962276
H           2.38828875267245   -0.99554195432390   -0.48299884282191
H           2.45072660169038    0.67767604990374   -1.97267929508014
H           2.52851154952014    0.85998725827719   -0.43110764272362
O          -0.15907612392859   -0.77508759378223   -1.61761704235342
H          -0.96516801032183   -1.15912708301485   -1.24065019141349
H          -0.03231927103131    0.84050118060816   -1.17955440923716
H           0.57538659278083   -1.30851564597293   -1.28835952784352
N          -0.12596756038585   -0.89569002797033    1.55772217917199
H          -0.93523718391799   -1.35170387025845    1.09917817221713
H          -0.02694253086494   -1.19822731150760    2.52081449446693
H           0.74914911228621   -1.09255430848620    1.02210791482276
H          -0.32988316348818    0.18677959797155    1.52906860041989
