    26
        -50.45489310  Gyration_radius:  2.43267084661 Dipole_moment: 9.412
 S          -0.53511810201472    1.73864621218271    1.20862571002833
O          -0.14171473058636    2.02228318730899   -0.30646548571112
O          -1.60130656408871    0.74608215530574    1.16969098682843
O           0.67140234338736    1.07720172235343    1.78257918141856
O          -0.84216003410263    2.99454164469800    1.79215034229774
O          -1.78686907499326   -1.81595590789586   -0.62218728458423
H          -2.43143859558236   -2.50454664656964   -0.45498641045124
O           2.40127542360827   -1.20680122842539   -0.53696939483767
H           3.24874094805333   -1.61256034616443   -0.72186598021115
O          -2.98441193639773    0.48693406470019   -0.98182653888074
H          -2.60316882510205    0.72873188644709   -0.10058503822085
H          -2.56975124091966    1.07711712106784   -1.61502303798406
H          -2.31810690271608   -0.98417379154605   -0.77077927776600
O           2.67631965152643    1.29895340669540    0.12562070397824
H           2.59485953050203   -0.25690978123336   -0.28470033674552
H           2.32963980008585    1.91797315814944   -0.52272677851052
H           2.02095617097851    1.31746693835256    0.86339818245296
O           0.15854985093252   -0.17108692489908   -1.78507794954408
H          -0.07749705645232    1.18854761149940   -0.82797109443877
H           1.00646829534070   -0.58659770180676   -1.56655276207309
H          -0.51766729493293   -0.84671855311677   -1.64940528599585
N           0.25494590075468   -1.35029680417553    1.16378124848999
H           1.08038933143874   -1.55289915892393    0.57147814105542
H          -0.62115973119673   -1.43261724973038    0.60043661822190
H           0.21689736269052   -1.96575038029221    1.96918823103582
H           0.36992548979268   -0.30756463398323    1.50017331014532
