    26
        -50.45489338  Gyration_radius:  2.43256022696 Dipole_moment: 9.417
 S           0.90457008705905    1.91442679240961   -0.53584947846260
O          -0.63570739384671    1.73333441934449   -0.88997224108751
O           1.02781530777894    1.62896014511130    0.88777436646187
O           1.58228216610441    0.81057729928677   -1.27386255060793
O           1.27212560021641    3.21429897061783   -0.96863950926559
O          -0.32092227934789   -2.34372357068218   -1.38579584604593
H          -0.43262570681992   -3.15282290130682   -1.88570119225838
O          -0.32306118111645   -0.68637844286040    2.50953639223590
H          -0.05016114452139   -0.90782585918292    3.40064974100274
O          -1.73164034300022   -0.48174421944784    0.09872711116823
H          -1.48914330577782   -0.67843123797724    1.01238550229719
H          -1.01236687841407    0.92239098713169   -0.47553103301443
H          -1.44431893246268   -1.24203196329477   -0.42922503925813
O          -1.05818059317288    1.82526932387961    2.37730801747888
H          -0.60737939784655    0.26960030956609    2.54761337292460
H          -0.22650587561579    1.95515491010094    1.85585768517097
H          -1.77732089627472    2.01737611792499    1.77136194535835
O          -0.08226176879271   -0.28164202172780   -2.96243287859674
H          -0.82527504257012    0.32711826910150   -2.93022301096903
H           0.64014022201656    0.18024322815103   -2.47369215477482
H          -0.22883511311636   -1.60865486281635   -2.05987956985411
N           1.37114031585145   -1.10392460914227    0.38084522493201
H           0.82392502314583   -1.78904640809815   -0.17080461394427
H           2.26689298121552   -1.48689823976887    0.66346710744837
H           1.53127963590670   -0.23809726334737   -0.28144867593086
H           0.82553449339160   -0.79752916297803    1.21753132759314
