    26
        -50.45489326  Gyration_radius:  2.43254718563 Dipole_moment: 9.414
 S           2.18208905346145   -0.07444493032424   -0.04664871413444
O           1.41814466526712   -1.42278161513983   -0.40547228096980
O           3.56943917459050   -0.35508294172115   -0.13945968067567
O           1.68847978705146    0.90591452594682   -1.05554518644386
O           1.67469983548927    0.34337578093273    1.25383732593860
O          -1.87163350684298    0.52645661280130   -1.93208941501248
H          -2.51439061394942    0.70279971233818   -2.61967070763815
O          -1.29308089776973    0.33208799360720    2.25642008540319
H          -1.55973258057947    0.78844758962954    3.05524550791005
O           0.58927881672107   -1.41215092850386    2.78652519550826
H          -0.59819022253186   -0.32425833341306    2.54372555218493
H           0.56924430205262   -2.21738506653107    2.26467451501373
H           1.18690666348781   -0.79143107406759    2.29873982467630
O          -1.20968838460970   -1.33338060150802    0.00750204444454
H           0.45540272275728   -1.36148589381951   -0.20368794376340
H          -1.47415286196290   -0.91240564555616    0.83519233569715
H          -1.62513086517260   -0.82182222772266   -0.70321762258871
O           0.37287776675318   -0.34111712521435   -2.93403578629860
H          -1.04363321046411    0.20886585874996   -2.39771370473322
H           0.98704187751189    0.17350887428599   -2.35777751713073
H           0.56453042999968   -1.26114636582302   -2.73268693306151
N          -0.43268580859544    1.74745075089978    0.05802841199858
H           0.53638460001243    1.43601235260023   -0.36390717051883
H          -1.14917900387609    1.47627015223678   -0.63923606148891
H          -0.59356688119028    1.23816405667289    0.95599531321818
H          -0.42945484760935    2.74953844862782    0.21526259245103
