    26
        -50.45489349  Gyration_radius:  2.43258536564 Dipole_moment: 9.419
 S           0.46906804131398    0.61315420128044    2.04318703300430
O          -0.87906179818734    1.00178004830699    1.64953828511977
O           0.81588928586245    0.77583517043202    3.40897818002591
O           0.59133204561348   -0.94013810329600    1.72256167210197
O           1.41699529042742    1.25946930203523    1.09122753229221
O           1.55505934876177   -0.32293478464241   -2.23511009185352
H           2.11348883718986   -0.43716561173842   -3.00455352849996
O          -2.44258068828797    0.17084940239251   -0.93528306922959
H          -3.25157417337971    0.60765394217009   -1.20415270486420
O          -0.32058831566872   -1.63596356145963   -0.67918388068495
H           0.20987008337581   -1.16197044099856    0.84129738351839
H          -1.15854080641125   -1.22488282729289   -0.92644122055332
H           0.32268298337813   -1.37045160674073   -1.35370241062266
O           2.92442488175412   -0.55352935243321   -0.02919860299291
H           2.51092260264543    0.19315373576418    0.46635222725065
H           2.71152113092150   -1.33551830411337    0.48740508910677
H           2.15420633978377   -0.41732607769081   -1.43801862468958
O          -2.69373340681663   -0.81104381244758    1.48103687065461
H          -2.06314751219998   -0.09581356614735    1.74798049095566
H          -2.62564825558175   -0.19213060211204   -0.02372797712618
H          -2.23342592051006   -1.63725909564224    1.64412502919713
N          -0.04064137026845    1.51526638879243   -0.97233223422769
H           0.54428123473899    1.47758407713422   -0.03945718102779
H          -0.98057322970507    1.09174249403761   -0.80319294292961
H          -0.13608439076896    2.47847328280454   -1.27573442622798
H           0.48585773201582    0.95116570154714   -1.66360090769544
