    26
        -50.45731602  Gyration_radius:  2.44431013042 Dipole_moment: 6.860
 S           0.06972155801372    1.90686827981478    0.60331526224407
O           1.37399278445536    2.53148879245339    0.57422415632492
O          -0.84723478717935    2.68430730505320    1.59553349329967
O          -0.57916009942239    1.87911064950310   -0.69569791548809
O           0.18977464641401    0.53635276715189    1.16336876568925
O          -2.39401025922718   -1.54014645563542   -0.28054200075778
H          -3.04051055251636   -2.24660964797189   -0.29254541707381
O           1.87383929584989   -1.39703474299924   -1.35716794422543
H           2.28668353563331   -1.63483062783260   -2.18844695521775
O          -2.79490050345461    1.14965734602100    0.59400074367301
H          -2.77694817718636    0.18552271112658    0.49205713451919
H          -1.70144089482968    2.21358741200439    1.51371150952710
H          -2.27089652670922    1.47642411648037   -0.15404031934805
O          -0.04726396772072   -2.11580965890945    0.84173677509330
H          -0.02525840139182   -1.17502021435923    1.09810333389546
H          -1.60957468212502   -1.87404750308457    0.21420718752818
H           0.60418081279867   -2.20563724656327    0.13707861390626
O          -0.43711091387632   -0.42091272912002   -1.96836085810393
H          -1.19477026532625   -0.86478702038470   -1.55472897176591
H          -0.46202737360451    0.49045868691597   -1.60406436183126
H           0.97370388957499   -1.01639050027178   -1.60598991739140
N           2.62512580001634    0.26986102835140    0.57390395002197
H           2.55329541836811   -0.34177601018060   -0.27695392333281
H           2.57427887833989    1.28930676679034    0.35511028030053
H           1.65408873982795    0.19429936744981    1.04485983700279
H           3.40242204527767    0.02575712819760    1.17732754150954
