    26
        -50.45489345  Gyration_radius:  2.43246104009 Dipole_moment: 9.418
 S           0.73823799583078    1.75565470012539    1.06899363368161
O           1.26434962590992    1.75515524609966   -0.32594325315191
O           0.98299225378027    2.95727119766038    1.78191813874937
O          -0.83859563081791    1.64261906167899    0.89200817584612
O           1.16432230833677    0.51197166221757    1.69755502547867
O          -0.56562917593935   -0.44962923557946   -2.64416697866658
H          -0.76663934617715   -0.58861272080898   -3.57008440364235
O           0.22446490973040   -2.40119515490147    1.02734042622863
H           0.68045538324095   -3.17359834803290    1.36364712795454
O          -1.66371181676156   -0.67922785608392   -0.11406391655268
H          -1.10561042993330    0.75653043524888    0.55279481973383
H          -1.48087688633629   -0.69593394152487   -1.06572725421247
H          -1.23021946394203   -1.45703831246033    0.25932040797266
O          -0.56377598501687   -0.87217957262548    3.00395509838260
H           0.13699056706559   -0.24675649199530    2.69069141659522
H          -1.39759303111269   -0.41638527858635    2.86930153964968
H          -0.06096255127889   -1.88759047116305    1.83418026982810
O          -0.70019725776295    2.07637524466590   -2.01488161180575
H           0.10113182971400    2.11614503663665   -1.44014370518162
H          -0.63037798972033    0.53776595712949   -2.48888404185764
H          -1.42993685066320    2.29832892778011   -1.43011480751611
N           1.43979891362229   -0.73407414008406   -0.79523857838456
H           0.80029680522182   -0.83338127107667   -1.60414789831275
H           2.38148149658264   -1.02994629214654   -1.02889783107604
H           1.44174000107279    0.33745328956571   -0.53824345801236
H           1.07786431535109   -1.27972167173001    0.01883164827544
