    26
        -50.46954187  Gyration_radius:  2.39866923904 Dipole_moment: 4.982
 S           0.66065499514861    1.30479293725854    0.62627079157882
O           1.42844277075910    0.04567798696333    0.52669000547339
O           0.97272035009523    2.01921624170915    1.83331252025715
O           1.08966445888877    2.14722792029912   -0.61521173267572
O          -0.77141007158315    1.02882379297334    0.49110902911210
O          -0.42043117717811   -1.11091325525305   -2.55316732848685
H          -0.44780180111620   -1.59059869506445   -3.38204257748455
H           0.53404876411387   -0.91423265461025   -2.37197090187103
O          -1.66784282108156   -1.40597280026390   -0.06173946332182
H          -1.30679901246440   -1.53271800017185   -0.95307245738673
H          -1.50955248584263   -0.45624875701124    0.12489642878305
O           2.04038023458619   -0.34822209607240   -1.98910487163929
H           1.92381116068255   -0.25003118763032   -1.01680446545606
H           2.26556128779202    0.53047480939704   -2.30387701688525
O          -0.66066345956318    0.56010676163051    3.30240656657380
H          -1.49540982179399    0.87426483019354    2.94438849699303
H          -0.32190683320481   -0.88764852698515    2.62667620383267
H           0.01312577348080    1.16223019433007    2.90911772939860
O          -0.95786857196928    1.55856223008618   -2.09746163183854
H          -1.35339194625394    1.47343197172187   -1.21531514952947
H           0.37147633204947    2.02248209165585   -1.29586815985918
H          -0.86355903785191    0.64300799840555   -2.41946262736608
N           0.03254862604212   -1.59792136771345    1.92774578754427
H          -0.72283577668460   -1.78735371527826    1.21086721912802
H           0.39702750188886   -2.43513241535366    2.36749163087894
H           0.77001055105350   -1.05330630521250    1.38412596424506
