    26
        -50.45489359  Gyration_radius:  2.43241993778 Dipole_moment: 9.423
 S          -2.13071489619293   -0.47546449984622    0.07697642006178
O          -1.83886846012892    0.35016663919773   -1.12950278292638
O          -3.51332408177607   -0.65851920956162    0.33564540598022
O          -1.30581816471988   -1.67401344704758   -0.00341443995626
O          -1.54935419689933    0.37964286173788    1.28582463066937
O           1.38159294726781    2.13891201026814   -1.02044461180907
H           1.84724248723010    2.89588615088070   -1.37706053825259
O           1.81161151678118   -1.87595046632434    0.24695680532845
H           2.29189612178993   -2.67050059605585    0.01120227300141
O          -1.07983942517346    2.74189691215074   -0.41038114387509
H           0.45064070359051    2.45086187815187   -0.82229706109395
H          -1.50992564820638    1.92367701887815   -0.75631869207175
H          -1.26586129504716    2.73439180869181    0.53248865004015
O           1.10105068693809    0.62499501503302    1.28035095853775
H           1.36289116625557    1.26481789838821    0.60117588441683
H          -0.56463882107392    0.41623999522246    1.26777549020863
H           1.57872207705419   -0.19076115940096    1.08354330207813
O           0.01367264073898   -2.40476009077595    2.07796560553467
H           1.16881111334830   -2.15371771350372    0.95824461116543
H          -0.13966341279737   -1.71078607825324    2.72294879491320
H          -0.64687997652352   -2.25033847213764    1.35662049464070
N           0.52981255430669   -0.38316091696831   -1.67792210084676
H          -0.52732104176917   -0.14816470302218   -1.47598054857765
H           1.04234268480616    0.51384992997356   -1.60033588161385
H           0.87330685552555   -1.05749834830631   -0.95760053905049
H           0.61861587467549   -0.78170241735313   -2.60646098650454
