    26
        -50.45489346  Gyration_radius:  2.43264833017 Dipole_moment: 9.423
 S           1.75058393911750    1.00147356846699    0.83951143222325
O           1.87051884071135   -0.56876973012553    0.61530555341023
O           2.98780223840952    1.43096256267979    1.38441291971802
O           1.45999326803033    1.54420277608131   -0.51825758479570
O           0.56001801330748    1.20317502845191    1.65514809278212
O          -2.22993596554484   -0.19697446979555    1.36417918011588
H          -3.01007174819863    0.11579621571752    1.82368682229107
O          -0.73345376179998   -0.58665180813269   -2.57493904882106
H          -0.97206962796678   -0.79226811577959   -3.47927140745770
O          -0.32204712083404   -0.75204430274958    3.07166646800178
H           0.12956406562807    0.04781889602109    2.70177313116759
H          -1.56495640647272   -0.40589855035262    2.07862648127126
H           0.23807933563096   -1.49650793666909    2.84092875354627
O          -0.40864926803306   -1.75100834514556   -0.08530075002077
H          -0.59398136705381   -1.55716619286013   -1.01667831998722
H           0.99956073148849   -0.97372492262375    0.39400544555505
H          -1.18314785827856   -1.45924593875570    0.41209120587060
O           1.84531177170541   -0.30903025222162   -2.31582527794950
H           2.26594389587152   -1.00173396398400   -1.79916640345722
H           0.26334091149611   -0.48845763166260   -2.56382612270741
H           1.83810095074847    0.47747301678830   -1.71966644381213
N          -1.06627095921181    1.31089899220298   -0.62311064959621
H          -1.17746316218729    0.67791077218468   -1.43561456070484
H           0.01658009600992    1.48671024389910   -0.52002416531988
H          -1.54190926910624    2.19408102075332   -0.77367723774006
H          -1.42144153347472    0.84897905760357    0.24402247642784
