    26
        -50.45289443  Gyration_radius:  2.64834840215 Dipole_moment: 2.979
 S          -0.73845912047266    0.22274486639626   -0.26279723088442
O          -1.75984414680889   -0.26308356990114   -1.15853979399414
O           0.50710349675870    0.58325854339998   -1.09566998103580
O          -1.10066145343638    1.33775496030901    0.55962868439231
O          -0.27457941904719   -0.91908917691292    0.63535646012340
O          -2.85982958861839   -2.70118049229738   -0.69329116701412
H          -2.64057106044867   -1.78639088850744   -0.94644177104015
H          -3.49677445443936   -2.64431878971376    0.02010563105113
O          -0.07658026006694   -1.50396605208596   -2.87623977243114
H          -0.82607603647571   -1.01270951318940   -2.49842141769548
H           0.66171733341464   -0.88942461256240   -2.86727016730029
O           2.66168487558675    2.59760761220355    1.42473099346524
H           3.41555276490453    2.07213963243105    1.15271009113080
H           2.07343278350778    1.99949658722845    1.96162772728174
O           0.86927416911498    2.96396661129435   -0.46130985861377
H           1.60518054560619    2.95471182483482    0.20998776949560
H           0.72937953822004    1.58531270214979   -0.90675016236132
H           0.04849090487889    3.00713033456350    0.04577239347343
O          -0.19918399569301   -3.01023687777429   -0.69604703816320
H          -0.02940941103806   -2.65539296086320   -1.60172330365131
H          -0.19181689752443   -1.84233278122688    0.09467622279077
H          -1.15679275036154   -3.21894576189779   -0.68559330200406
N           0.91582723511431    0.94212978383345    2.59186325995472
H           0.09955685824794    1.12680596759540    2.01140667624032
H           0.64730469442717    1.09961388799212    3.55570720009304
H           1.11607339463726   -0.04560181731068    2.48652183668226
