    26
        -50.45734428  Gyration_radius:  2.52396589419 Dipole_moment: 7.791
 S          -1.12929459912364    0.58971907733242   -1.47039541746176
O          -2.37200028056372    0.63112791122652   -2.15614060361586
O          -1.12230250326739    1.37398348872557   -0.20760357402342
O          -0.63862560898933   -0.75888016559124   -1.15676226620208
O          -0.01827315289453    1.26757182165699   -2.35959840882036
O           2.42420358774844    0.84115339230921    0.75490686241477
H           3.27955774938973    1.11940447531510    1.08403615830174
O          -0.93507952591426   -2.41618831565021    2.05817346384136
H          -1.58005938116587   -2.53329015328741    2.75801870431720
O          -2.36615816910167   -2.42493292102208   -0.14276257586996
H          -1.43816501158396   -2.53733902979615    1.21309932671034
H          -1.80474217137510   -1.75073499839849   -0.59394984940954
H          -2.51239988339026   -3.11582237397407   -0.79072587095188
O           1.05322852381612    2.83454676536784   -0.23923508883151
H           1.97920333209287    1.65627926851816    0.38763373113109
H           1.20556342098180    3.00441694289301   -1.17263623316924
H           0.15854340229239    2.41807224888680   -0.20883382933118
O           1.88917771622802   -0.39390702443280   -1.69405625687119
H           0.78837039699734    0.70619829222209   -2.24662342404370
H           2.25305287958164   -0.08697204470948   -0.84902941676714
H           1.07076328086806   -0.87677334123561   -1.47054901593251
N          -0.03192362006763    0.07957509259060    1.71922820134354
H          -0.21925938254098    0.59254822536915    2.57537257627976
H          -0.33999182019960   -0.92562309939743    1.82022331553855
H          -0.56678242917218    0.55901877420787    0.90351301312262
H           0.97339325931235    0.14684769094480    1.48469648827932
