    26
        -50.46489351  Gyration_radius:  2.55408704078 Dipole_moment: 4.639
 S          -0.07496546015574    0.34952901233343   -0.74438631129441
O          -1.16293274550222    1.29999529058020   -0.85676198326609
O           0.65142902014183    0.28505076409052   -2.08812048650336
O           0.87483172253644    0.73878629434215    0.29825378609023
O          -0.62107256437679   -0.99566529883660   -0.45284006715188
O           0.30085435410701   -3.19622124251231   -1.65745714377699
H          -0.08474433970044   -2.46215435753800   -1.13731313760811
H          -0.21437755309886   -3.25210991162903   -2.46404721370820
O          -1.53596123353953    3.28762877674204    0.83597896096406
H          -1.06160359965419    4.06559675441313    0.53984475990066
H          -1.41855288760776    2.61590841690916    0.12611767924859
O           2.93742965327116   -0.86959265710003    0.63289634251119
H           3.68769183437133   -0.30299757455552    0.82022643636703
H           2.15220822477388   -0.27993586959488    0.59915675078281
O           2.39216979351991   -1.52659820199838   -1.89771145052402
H           2.73613722392186   -1.40904017244884   -0.98424541678947
H           1.80594853623838   -2.31177793045182   -1.85793177367704
H           1.40134618012766   -0.42978065696504   -2.04623862272034
O          -0.56468621594345    1.36524593131073    2.40895879241097
H          -0.88957830032381    2.23876686681915    2.10329666981363
H          -1.64584165778245    0.48967528814436    1.87345229000639
H           0.13188512609900    1.13217696684242    1.75226209581445
N          -2.32857054125575   -0.08741423112308    1.23064002454541
H          -2.93037657064453   -0.71898327094431    1.74981644760108
H          -1.67509513581904   -0.60270573031167    0.54327046726188
H          -2.86357286370401    0.57661675348226    0.67288210370742
