    26
        -50.45731624  Gyration_radius:  2.4444870571 Dipole_moment: 6.862
 S           0.90136833170590   -0.72942662817309    1.63206717533288
O           2.14022539404329   -0.08740578532312    2.01222718691941
O          -0.09703594713678    0.30466860069090    1.25690034835541
O           1.06564985476842   -1.70008292651793    0.56415581257994
O           0.30069526175211   -1.45808133250604    2.87212022225162
O          -2.35494283446691   -1.09887432238671   -1.19722478294635
H          -3.19721613471230   -1.21700503762847   -1.63756449889479
O           1.02421387381478    1.64110638268639   -1.88792228045344
H           1.54009832182537    1.76174669585187   -2.68621451960664
O          -1.41824053572145   -2.49822912524849    1.10834919748107
H          -0.53207557087971   -2.56035832456405    0.71864483986918
H          -0.49942500311624   -1.88552438454659    2.50429649387701
H          -1.93359482244881   -2.01100869258201    0.44692443089544
O           0.37879551461524   -0.85822397161474   -1.83367895419976
H           0.73607409599714   -1.22171347899577   -0.99455946634728
H          -0.57389249139403   -1.03752728746886   -1.78628926484217
H           0.77792619818451    0.66317376634608   -1.87514737515830
O          -1.68443060129278    1.40920111395393   -0.60101008183907
H          -2.27012714791581   -0.13936839344440   -0.98767152510260
H          -1.22782609771237    1.02454355724910    0.17029843257995
H          -0.98432208443196    1.68106070291699   -1.20508989434135
N           1.61293896030156    2.06006624214503    0.67113826172005
H           1.59614133044232    2.00574643576233   -0.37777103875199
H           2.29110306591912    1.39848769117495    1.10829035452042
H           1.69382668045182    3.00828823416729    1.02086688388866
H           0.71407240740770    1.54474025805538    0.98386405221246
