    26
        -50.45731607  Gyration_radius:  2.44434183808 Dipole_moment: 6.860
 S          -0.26820601524123    1.55940613190899    1.22544207692238
O           0.91782451316074    2.05060479272684    1.89188655290872
O           0.04496602722217    1.27900206912216   -0.19921075208315
O          -0.84130458049621    0.38995654347043    1.86828539927785
O          -1.34506248703484    2.68619336012794    1.20201133145760
O          -2.09778406833708   -1.39405636851608   -1.35675350679037
H          -2.62028567810381   -1.87802297937341   -1.99701563730270
O           2.13754102222143   -1.64500741197109   -0.17407453363986
H           2.62265598036897   -2.40617947213440    0.14734359907063
O          -2.96861644498970    0.75991533002501    0.30539280388482
H          -2.10703746569197    2.24738220360566    0.77213413628827
H          -2.79053949993554    0.14582627800258   -0.42358568086595
H          -2.46898080793949    0.39284623418194    1.05139939630912
O          -0.26932485061558   -1.91010319253799    0.72229290349323
H           1.20044497613838   -1.75685466077334    0.18145220241143
H          -0.45849151498649   -1.10994867705258    1.25877458645174
H          -0.96412359659053   -1.91372763481228    0.04449528634851
O           0.25528910469165   -0.48247470074246   -2.21097362533446
H          -1.29396997583778   -1.06903727140168   -1.82565033053956
H           0.11270539733827    0.25124523384495   -1.58443966398023
H           0.94539033967783   -1.02739751998168   -1.81624219675511
N           2.51662270482253    0.96381495663785    0.17630913376993
H           1.54928182518263    1.18328265562371   -0.25555591500227
H           3.29356922047166    1.42690493489725   -0.28172229759531
H           2.31233389393034    1.34040628683577    1.12820059447572
H           2.58510199057540   -0.08397713171275    0.14980413681608
