    26
        -50.45426012  Gyration_radius:  2.48291460516 Dipole_moment: 9.494
 S          -1.15043889431121    1.42357756496277   -1.07911339607288
O          -1.78121123391174    2.48951702478608   -1.77482273478352
O          -1.86226631047001    1.25179739374763    0.31984555043106
O          -1.32391660187536    0.09465461431001   -1.74619004697500
O           0.27163277569518    1.58129138512461   -0.79790479387455
O          -0.68000640612648   -2.55128136819131    0.77520932511722
H          -0.88110057935200   -3.44167684748537    1.06460044132316
O           2.45612572727121    0.17426414055239    0.76190019857639
H           3.13911299547841    0.00136386121034    1.41121061699966
O           2.24947379419613    2.78156073101398    0.35966801942907
H           2.71772426279692    3.25327517822041   -0.33115756648468
H           1.38616315784481    2.52300610484591   -0.03850075145536
H           2.45296223852159    1.15394421977481    0.61414297743100
O          -0.11846376919626   -0.01530446518851    1.82711878882692
H          -1.19285480964904    0.85693374168624    0.93194776193882
H          -0.28019724738750   -0.95686290756128    1.66851911821470
H           0.77922867847148    0.17067076649214    1.50244213652123
O          -2.80627899440317   -1.38260745972713   -0.16849982479646
H          -3.15125156213413   -0.71421028541554    0.43115217143908
H          -2.37721929999787   -0.86075386281332   -0.88755497910543
H          -1.54132722602767   -2.16547941709388    0.43599667977855
N           0.76754548390078   -1.15097224773952   -1.06074690640058
H           1.25921700709002   -1.58175078888787   -1.83599917187800
H          -0.11169744054953   -0.57342273827684   -1.42764126096365
H           0.39318997104244   -1.86116286412621   -0.40430952068830
H           1.38585427308290   -0.50037146422088   -0.55131286254931
