    26
        -50.45426023  Gyration_radius:  2.48270978373 Dipole_moment: 9.493
 S          -0.41329371863199    2.04015262946722   -0.42473361953890
O          -0.82447208623012    3.38997715476782   -0.58892045267956
O          -1.34440503888309    1.15578762591192    0.26621178832883
O          -0.04216290232909    1.37194756435329   -1.71194593117853
O           0.92109674185328    2.02539581478104    0.41933042103922
O          -1.41399518746774   -1.66879707852606    1.36434208598648
H          -1.47506965187569   -2.40339060340674    1.97639544825994
O           2.06346233599620   -1.57613538290521   -0.90837960924617
H           2.76854386577702   -2.15484119730809   -1.19985722075912
O          -2.66837069913845    0.43377571826356    2.36783622698269
H          -3.58701985605214    0.64240706294350    2.19041189431145
H          -1.93647974067476   -0.92797019422203    1.76410416570419
H          -2.15313236980048    0.91152542419326    1.67705736714380
O           1.07123389930290   -0.39746677367083    1.43181999546159
H           0.95427036010269    1.15249972367703    0.88369523736540
H           0.17557876264527   -0.76849599309961    1.50973362552025
H           1.53116964216573   -0.92434083271901    0.76191610386338
O           2.53112368269233    0.88315733169309   -1.62242995106364
H           1.60233512112417    1.15827925987161   -1.80983779718053
H           2.79223201460979    1.43463304888249   -0.87872591912215
H           2.31599567329735   -0.65317991561438   -1.20900452781070
N          -0.58869542373262   -1.05500436903981   -1.25712728485914
H          -1.15646924035302   -1.48787279160061   -1.97725312515243
H          -0.42578609970203    0.02362443406431   -1.48325614318615
H          -1.05138752174816   -1.12109927426577   -0.33697495333259
H           0.35369742704921   -1.48456839648559   -1.20440781485689
