    26
        -50.45426021  Gyration_radius:  2.48276768835 Dipole_moment: 9.493
 S           0.67737252505790    1.80107599510519   -0.90017216272728
O           0.96781849264352    3.01300690921109   -1.58204591921689
O          -0.72174983692544    1.39150212519037   -0.86847899162262
O           1.46580345875778    0.63035924933558   -1.60807504461986
O           1.17578539010697    1.77989379558314    0.51132006793835
O          -2.37852525791476   -0.99329357007961   -0.00161659851178
H          -2.96399307841257   -1.75103368974692   -0.03357307718775
O           1.37565646982489   -1.75980026204345    1.60662800363743
H           1.82181744763999   -2.39653000118559    2.16566949089203
O          -2.89868559906651    0.62039531033529   -2.03333852604893
H          -2.64530249293625   -0.40246887644079   -0.75085803497842
H          -3.50529383693242    1.36105242504794   -1.98447047728784
H          -2.01515855237443    0.98955792732507   -1.80104430497370
O           3.06634766236062   -0.03042432670722    0.64334861205732
H           3.24186073325784   -0.17455111357701   -0.29142032810153
H           2.48291701495477    0.76511648758155    0.65749026694987
H           2.08591915464114   -1.13779610258685    1.26815623837293
O           0.19270104492529   -1.56809040272049   -0.92644987609168
H          -0.73456266252750   -1.35249819542317   -0.72724319428013
H           0.95339932449389   -0.19899457548637   -1.44018360958449
H           0.59660346956663   -1.84800537493646   -0.09195506130448
N          -0.47132462146098    0.24325769913545    1.66084900065083
H          -1.22072367666248    0.00546900334372    0.99229896648901
H           0.20344191448190    0.98276394664671    1.17195993602433
H          -0.85989455684194    0.62653020650277    2.51550258874342
H           0.10777006934417   -0.59649458941091    1.84770203478192
