    26
        -50.45426016  Gyration_radius:  2.48287922881 Dipole_moment: 9.492
 S          -1.83250436116919    1.04062743885177   -0.27046393296347
O          -1.87989471620478    0.43473910731983    1.18699284052113
O          -0.73445873186911    2.05649180206991   -0.21132837430481
O          -1.37804698477729   -0.03364201708790   -1.14553240524437
O          -3.10408808184968    1.60214635162896   -0.56358901076550
O           2.09194341176354    0.58233962947791    1.68944767575471
H           2.83820044161916    0.75051394312166    2.26549249772156
O           0.89213048694440   -2.03546321737271   -1.30596579908679
H           1.36922982866283   -2.86605298535885   -1.32712288949985
O           0.10183511684947    2.15676630529815    2.27050866001041
H          -0.61125862232283    1.69201008072920    2.71867128727030
H           1.36796716009080    1.21409727951159    1.97691413216585
H          -0.24202650694964    2.29857961613941    1.35665867576957
O           0.07800559369248   -1.31987072699760    1.26771590666786
H          -1.20987624173574   -0.29259391846038    1.21393817696037
H           0.25628256054223   -1.64216504015414    0.36759383268145
H           0.85918408251632   -0.81688845825477    1.54094878335800
O          -1.59171491556775   -2.41387139909163   -2.13616235270318
H          -1.73338701371862   -1.53811253955906   -1.70750785509938
H          -1.87351920207908   -2.30102963274879   -3.04545763206471
H          -0.01064510276699   -2.22266440155018   -1.66870588301537
N           1.29666744637344    0.72337076257850   -0.91332851158496
H           1.83018547495312    0.65533563041166   -0.02666344423205
H           0.38892683877451    1.32717837864845   -0.68381043846705
H           1.84285050589622    1.16546971745323   -1.64445109987199
H           0.98801153233153   -0.21731170660434   -1.20479282997762
