    26
        -50.45426024  Gyration_radius:  2.48269164724 Dipole_moment: 9.496
 S           1.99166026329849    0.31177743136274    0.66990931129904
O           3.30599239155011    0.68909399234253    1.05493051028283
O           1.29457649223283   -0.53493743615839    1.68881317124484
O           1.08162222930591    1.39439193857908    0.31496131799605
O           2.09323746567955   -0.61700113928794   -0.60308832032148
O          -1.48410086672545   -2.31658103425432   -0.00661404406080
H          -2.03024194010608   -3.10289059380147   -0.02843799221529
O          -1.69332854791206    1.74696112268128   -0.85190264239858
H          -2.40437188847084    1.99975266521974   -1.44223635715845
O           0.36907378890186    3.36884388680477   -1.19625150839046
H          -0.96948524115079    2.40987088093628   -0.98673514827367
H           0.51332543475951    4.16510484160611   -0.68233364911678
H           0.84799901967555    2.65536418899768   -0.71407785205070
O           0.96781030041321   -2.91190133184054    0.63427416690581
H           1.56397475089288   -2.85691118887125   -0.11868818498178
H           1.17785278906002   -2.10716062705546    1.16506594140384
H          -0.56065610733374   -2.62346477135751    0.23626271685918
O          -0.27221289552811   -0.48435326217787   -1.74585253930334
H           1.24392492043979   -0.51295879305189   -1.09952636709001
H          -0.79752067978933   -1.18005254508078   -1.32398591188456
H          -0.69359704210785    0.36084335850856   -1.51346607076154
N          -1.14022368906730    0.03992854847142    1.31835821587881
H          -1.50906277947514   -0.83373862429692    0.89876095287024
H          -0.06402761155341   -0.15019764229550    1.53462258456495
H          -1.19589739979249    0.80587546884644    0.62888888306842
H          -1.63632314719755    0.28434069517369    2.16834879563428
