    26
        -50.45426010  Gyration_radius:  2.48287523955 Dipole_moment: 9.493
 S           1.05481252274673   -0.79451134360057    1.66410856358575
O           1.48722273722531   -0.95865842302459    0.28123379771561
O          -0.35919123496483   -1.27942248221492    1.74518093703102
O           1.89893525150662   -1.35023305027778    2.66244339238993
O           0.94679685409454    0.76106278140886    1.91285099491897
O          -2.50658400305665    1.13134861885396   -0.08498101370377
H          -3.37300863856995    1.53327134903788   -0.15399997431704
O           0.68664184324342   -0.01340035779418   -2.48439677427314
H           0.71793150044700    0.41525954935633   -3.34068606717092
O           0.20266049615819    1.77667059821707   -0.39642684890080
H           0.49428331506027    1.18797536309649   -1.11361752354476
H          -0.76518916895895    1.74430912786485   -0.38879041343753
H           0.75531075025538    1.17585910530116    1.03541600047845
O           3.14636493644538   -0.53120081850297   -1.65701993277682
H           3.59724907688925   -1.36289143992501   -1.81181757949720
H           1.62389072091303   -0.22668172127242   -2.24429756163327
H           2.69532867989802   -0.63567072939918   -0.78735480803410
O          -1.84989546072133    0.77170598887765    2.40831353142230
H          -1.17787878050589    1.39442837820146    2.70151533028869
H          -2.32039508026671    1.03333829185557    0.89564527789872
H          -1.36037037954812   -0.07898784691779    2.30755673844660
N          -1.13174930056182   -1.15044430093367   -0.65940901463092
H          -1.57007051651355   -2.00146202450489   -0.99400683994275
H          -0.32487759553320   -0.89708010271153   -1.25088570258460
H          -1.80353365189456   -0.36092705790502   -0.63060061781853
H          -0.76468488379009   -1.28365743308639    0.38402610809312
