    26
        -50.45426017  Gyration_radius:  2.48278644851 Dipole_moment: 9.493
 S          -0.66826795980242    1.91846861903688    0.62125943508220
O          -1.87147079269239    1.12298537360780    0.22057104765779
O           0.34611001028864    1.71078440303299   -0.40544325814670
O          -0.96905129305950    3.26702724763021    0.95149342013415
O          -0.13859986128080    1.19393353267159    1.92037579640380
O           1.89879015771471   -0.57770233848819   -1.64486919848801
H           2.62676443568519   -1.14158845065583   -1.90962654835534
O          -1.04455646610338   -2.47557770043994    0.59136229418406
H          -1.37691939689003   -3.35425005997069    0.77705324329724
O           2.77191163781952    1.89412793637808   -1.28485870496350
H           2.26804930763857    0.33867167531434   -1.57063209949849
H           2.75963007479788    2.56876558121623   -1.96582055871327
H           1.91674346741900    1.99051279750679   -0.80513765843998
O           1.21638522530153   -0.88385493656258    1.04570976516870
H           0.56432186470171   -1.59449699863891    0.95815812785105
H           1.54527305491587   -0.69702387804620    0.14970989620978
H           0.44959139016989    0.45918186788265    1.61569010099341
O          -2.25049026677490   -0.70011281678809    2.06472578384804
H          -1.54504973614010   -1.85266720920535    1.19741895875354
H          -1.68524578847695   -0.36490969208689    2.76719845806502
H          -2.27949736131105    0.03631114044664    1.40871042880589
N          -0.90370967555932   -0.58865117978285   -1.36988934102476
H          -0.98071857143148   -1.46483109624375   -0.82051426183984
H          -1.33985831615651    0.21555674579949   -0.73414754886349
H           0.09141316893770   -0.36517639194446   -1.52769482026390
H          -1.40154829971375   -0.65548418167054   -2.25080276785720
