    26
        -50.45426022  Gyration_radius:  2.48274975624 Dipole_moment: 9.492
 S          -0.15305570198547    2.08153178144145    0.39681250815153
O          -0.20398271499541    3.49811604491851    0.49051643588470
O          -1.63255623970242    1.53335820774927    0.33343663869971
O           0.53761219542895    1.53048645234342   -0.76322718397756
O           0.43034861495509    1.42696844189184    1.61023185602430
O           1.00056771995454   -1.16509362189084   -2.07038481030441
H           0.98886473953881   -1.87619413763715   -2.71238906839369
O          -0.64030500675670   -2.12603435382341    1.62403817107704
H          -0.85511443722321   -2.89131573652127    2.15808075580506
O          -1.43737878439089   -0.85811046894187   -0.74412683164596
H          -1.59584701431561    0.67149680524957   -0.15084599378929
H          -0.63997079704693   -0.89516269737527   -1.29972736307208
H          -1.28421886661820   -1.45971507438151   -0.00081029758373
O          -1.48894465669278    0.05896675975351    2.75649966740838
H          -1.00338572533338   -1.33058637837385    2.11539941247357
H          -0.75150276137655    0.65676606815472    2.48767598318592
H          -2.25941111201413    0.42414146655986    2.31105939955318
O           0.77357677138682    1.16026617548809   -3.31240541225978
H           0.55063553143341    1.47821855029098   -2.40681569219653
H           1.52100978887975    1.69130635503318   -3.59209606564137
H           0.96107183602315   -0.32103003875456   -2.58770282513881
N           1.46121537334285   -0.68000945162426    0.66496354783804
H           1.38579720288770   -0.65017268926667   -0.36389213273525
H           2.42266808642235   -0.82829190862598    0.95118133691885
H           1.07846668856510    0.28643130049264    1.06589933300610
H           0.83383927963378   -1.41633782215228    1.03862860071200
