    26
        -50.45426023  Gyration_radius:  2.48266119794 Dipole_moment: 9.494
 S          -1.76446448486642   -1.12811037428326   -0.35731352970633
O          -1.35289553042983   -0.50171905136708   -1.65321885281554
O          -0.56223351570568   -1.68357650375867    0.25300483292295
O          -2.19545541278856    0.09388043044024    0.54506542538132
O          -2.87467344893037   -2.00543780084802   -0.48329214048027
O           0.65162083535433    2.52359364812434   -0.87930172185845
H           0.91260928026502    3.40038344110225   -1.16235718272205
O           2.14568853862160   -0.73105853807555    1.22780466269287
H           2.88370587011569   -0.53144597407378    1.80525979805307
O          -1.84260620518846    2.06618547200148   -1.46784617082265
H          -0.31457680282584    2.42425527436154   -1.12946451161680
H          -1.76607642486594    1.10686216584511   -1.68541917517196
H          -2.40905189218650    2.08465827690955   -0.69057134060473
O           0.71223169112821   -2.70043428630940    2.26108679179899
H           0.84716464996688   -3.62611888221649    2.05173394700355
H           1.67308069005984   -1.50108110891910    1.63444329048406
H           0.04088813940998   -2.38082184652622    1.61453869228575
O           0.05382948761073    1.10369909817444    1.46088946398515
H           0.73253611498131    0.40741013192196    1.48250608975864
H           0.33594219054488    1.74371475835613    0.79104525478164
H          -1.37175471060433    0.43553387079670    0.97339986056151
N           1.12599237537819   -0.12273980805113   -1.32563904156146
H           1.40900762433943   -0.55231513642618   -0.43093716107989
H           0.05243808929234   -0.36482954951683   -1.49878088237118
H           1.18025610255518    0.90997574769325   -1.24838323045075
H           1.69679673876862   -0.47046345535606   -2.08825315844485
