    26
        -50.45426025  Gyration_radius:  2.48260982543 Dipole_moment: 9.495
 S           0.52069664148756    1.16532487713332    1.69837381806252
O           0.66042053835031   -0.34491336560635    2.13773901831887
O          -0.75904086072984    1.27396887363432    1.00792037289324
O           0.69264846500303    1.98357273937258    2.84680945409811
O           1.59381828900831    1.35073451331850    0.67119303898149
O          -2.25734095911588   -0.09983654272142   -1.24083291418703
H          -2.92521925705970   -0.59466646628809   -1.71733445707596
O           1.59452918737033   -1.62991916024327   -1.53894021364017
H           2.11631610712304   -2.20888081694605   -2.09532770029294
O          -3.32877380791730    0.99395131936715    0.91719217589781
H          -3.69600524052639    1.87910580092046    0.94119811309014
H          -2.71867320771856    0.32491094224472   -0.47379394029367
H          -2.38435598145965    1.09476414588456    1.17955949189891
O          -0.55337517481601   -1.72705634888993    0.25756992346412
H           0.12563681683632   -1.89591201005820   -0.41201420987799
H           0.13366927673940   -0.87877311406892    1.49259716120600
H          -1.22781839045608   -1.16882752202358   -0.16603974972743
O           2.95404346251363   -0.88631762903870    0.55287080078949
H           2.17592295113939   -1.39458692520962   -0.75626556068729
H           2.60442936817749    0.03282125721375    0.63310675189333
H           2.65250210215764   -1.32156065501837    1.35601709007442
N           0.39390500695143    0.81609039160285   -1.48987801131612
H          -0.60779410252866    0.67681436807298   -1.28405829417543
H           0.51876221582528    1.51800094855771   -2.21102749814255
H           0.89807568556588    1.12990319908206   -0.54729744327477
H           0.82302086807764   -0.08871284029288   -1.75933719797722
