    26
        -50.45426024  Gyration_radius:  2.48272716269 Dipole_moment: 9.494
 S          -0.28762239713280    0.78261484273750    1.95424436654956
O          -0.80839968096020    1.41506289462157    0.74793804168077
O          -0.60875557371976    1.40959920726521    3.18782972162216
O          -0.87315611290964   -0.68372757191707    1.97389934545117
O           1.18301438099906    0.58913486245022    1.75190372954157
O          -0.98738392399853    0.84889138320855   -2.22493201893966
H          -1.34762858218842    0.67585994850167   -3.09572633511548
O           1.65056138542796   -2.04058384549321   -0.82482955024542
H           2.20914132352441   -2.74740452211021   -1.14947395312175
O           1.64029613655468   -1.99138466140773    1.77799864986236
H           1.68920896973733   -2.09001549699337    0.17613613690962
H           1.59091794929255   -1.01406711934131    1.90397495267037
H           0.81233418963886   -2.31604015400859    2.14468311728323
O          -1.06047752783332   -1.38684595157675   -0.55376761607453
H          -0.19980982771501   -1.77192128053530   -0.77479024489636
H          -1.03729805510501   -0.93708370165333    1.03179777790435
H          -1.15671539732412   -0.58932183503416   -1.10203720187844
O          -2.76501685709049    2.16215574111074   -0.77027122107886
H          -2.18311918014628    1.87396105308080   -0.02919946604443
H          -2.80276942526709    3.11797055680763   -0.70778413701561
H          -1.66944617151384    1.38021503168761   -1.74106608245046
N           1.41429819375523    0.67378874314961   -0.76505282790137
H           1.63981830600365   -0.31154211568819   -0.99674935768388
H           2.13693595692894    1.30781901019360   -1.08776187332462
H           0.49923828944177    0.92442481564263   -1.17121352421791
H           1.32183363159891    0.71844015530535    0.34424956051363
