    26
        -50.45426017  Gyration_radius:  2.48281730889 Dipole_moment: 9.495
 S          -1.29786304329281   -0.95033123069786   -1.38747336137447
O          -1.14140197561092   -1.94889111443923   -0.17428526265890
O          -1.55895001028480    0.36146775320171   -0.80675356413674
O           0.06710993128213   -0.89843430629072   -2.00002926756149
O          -2.29003816775242   -1.46378699177709   -2.26502896961442
O          -0.36472877899751    2.20870302296121    1.27787489363814
H          -0.26440291877246    2.73849659350256    2.06985037661698
O           2.55262646861391   -0.70307347499856    0.74854574449085
H           3.44051313081631   -0.91738880008691    1.03616871951083
O          -0.05717717634084   -0.52564609044696    1.75365035552983
H          -0.81837303582674   -1.41470070098701    0.59311009218608
H           0.89876969828860   -0.59839248630383    1.61678559044264
H          -0.28507594287463    0.41139479305278    1.62710127592571
O          -2.93350469067877    1.95907326073970    0.69309057479237
H          -1.33483116089018    2.18637086239141    1.07792081965658
H          -3.40464936287102    2.54534722127824    0.09871430961366
H          -2.60255257565708    1.22325768173686    0.12756726999540
O           1.56567500734974   -2.61943818725570   -0.71103961224456
H           1.04962515617831   -2.06704436316628   -1.34507303792907
H           2.23797597652866   -1.48457653853634    0.20431337813824
H           0.89479884862485   -3.12518415476392   -0.24247557158670
N           1.14510809802053    1.04655316103916   -0.79568830661110
H           0.43418421427899    1.49886475411085   -0.19977063836073
H           1.57747629127057    1.72233618230712   -1.41591631368474
H           1.84792784765249    0.57126488684766   -0.19939797947724
H           0.64175819094529    0.24375827658265   -1.38176151529735
