    26
        -50.45731607  Gyration_radius:  2.44437540533 Dipole_moment: 6.859
 S          -0.10248031712014    1.91918604951940    0.55721018761867
O          -0.72906369404033    1.80521897287778   -0.74807389511493
O          -1.09640618938413    2.63679089525195    1.51976159056651
O           0.12793224826408    0.57746480402006    1.15152150432251
O           1.14324075783477    2.65361070717484    0.52775624302870
O          -2.24939357692207   -1.74720256286265   -0.26750557504582
H          -2.83292286922817   -2.50659520950847   -0.26892059369920
O           2.00563170101636   -1.26079005236885   -1.30271955091680
H           2.44829931446660   -1.47842005416317   -2.12406650108178
O          -2.89143477173307    0.91833089953258    0.53337247543960
H          -2.78857838926290   -0.04284526303695    0.45639094581568
H          -1.90599513291348    2.09260419646078    1.43863139397842
H          -2.38735762262746    1.27109946917756   -0.21651393727960
O           0.12388188139477   -2.09214874188036    0.89295262914014
H           0.78942544137773   -2.14243065908789    0.19763884729500
H           0.06188069794115   -1.14713220978476    1.12606876037962
H          -1.44562499984982   -2.00073781887579    0.24360747906336
O          -0.37363250052198   -0.50391292707993   -1.96107950680262
H          -1.09564849932998   -1.00163921912013   -1.54502609213861
H          -0.48146319231690    0.41031400351876   -1.61980454118595
H           1.07891267431533   -0.96602531243691   -1.56969427149824
N           2.58472268413211    0.50898177143539    0.59584665283594
H           1.61747312275055    0.36096256228637    1.05748780547221
H           2.44975578724723    1.51482259256935    0.35175444974162
H           3.37184633740428    0.34684029346647    1.21394146961706
H           2.57699912710745   -0.12634718708607   -0.24053796955215
