    26
        -50.45289441  Gyration_radius:  2.64825234035 Dipole_moment: 2.981
 S          -0.74570026554519    0.20370085597122    0.25854631645083
O          -2.09963168245432   -0.28214977294332    0.14665641351499
O          -0.27460537787631    0.65624206302898   -1.13726666205054
O          -0.53211594063883    1.26178008378083    1.19965667711686
O           0.17674854289492   -0.95882392490230    0.60981662684532
O          -2.67073977991048   -2.78470035188787    1.03139849543875
H          -2.73465120475752   -2.78910388302896    1.98729817707567
H          -2.65755097836418   -1.85036799028143    0.75599640365796
O          -1.81924140569792   -1.36613804245770   -2.31715036819360
H          -2.18119577372503   -0.92606676080373   -1.52903578237495
H          -1.23384186539851   -0.72147203201765   -2.72283746908374
O           2.96482531974987    2.63638496497656   -0.33894171713229
H           2.83176055518557    1.98896791571337    0.40606899862776
H           3.39610419436492    2.15708947807320   -1.04793098288056
O          -0.57086641056980   -2.97862368360138   -0.62036473176383
H          -1.31949790724074   -3.22871804374714   -0.03928581127101
H          -0.99440081776575   -2.57385629282830   -1.41520056947370
H          -0.08520408724800   -1.85043285497532    0.07367760509741
O           0.39108356625862    3.01699355919969   -0.70683857790513
H           0.05352690396045    3.00096862797577    0.19787078711589
H           1.38403704275293    3.00665646256678   -0.62815589406464
H           0.01287870448132    1.65653376862166   -1.06042126339666
N           2.30847195356518    0.85497513044754    1.54427144680053
H           2.40630247798873   -0.11730772460219    1.27617461301890
H           1.30695360587670    1.03236607288111    1.59742791388411
H           2.68655064010719    0.95510236483767    2.47856936496080
