    26
        -50.45426024  Gyration_radius:  2.48270758134 Dipole_moment: 9.495
 S          -0.24233513263764    2.04583658843723    0.51811479564983
O           0.16694436872475    1.59247732791768   -0.80597376409042
O          -0.40275368833812    3.44722049330890    0.68666655823613
O          -1.62615157637515    1.34684384341497    0.81774824396435
O           0.70116043798045    1.43322204004439    1.50584690492619
O           0.52445360956033   -1.01374945491623   -2.31122737508039
H           0.41364590582135   -1.70930795619626   -2.96076729256429
O           0.01971000695228   -2.21192244172259    1.63589005970782
H           0.02906437406015   -3.00534062887592    2.17199669725905
O          -1.49332118357742   -0.99051206666966   -0.38138684860288
H          -1.09180267553473   -1.58663412249302    0.26773331478063
H          -1.63587022061292    0.50274533215571    0.30201090538530
H          -0.87170416144575   -0.93342386690623   -1.12723643508524
O          -0.70623710863849   -0.14979735084818    3.04926342198847
H          -0.12705879006150    0.52708038648361    2.62515222674488
H          -1.59840796361037    0.14066228115919    2.83696557762858
H          -0.27548491694917   -1.46837266396154    2.24083962662928
O          -0.24495132828819    1.29850030478497   -3.34236795429039
H           0.26849327800870   -0.16866419542355   -2.76070040071213
H          -0.25001662804311    1.57370036002665   -2.39623323745391
H           0.34777325589267    1.90989526859295   -3.78261061817577
N           1.64327039977900   -0.53564236175888    0.22842112437903
H           1.29570076703298   -0.49412177734089   -0.74246724433222
H           2.65583498637371   -0.58756905158585    0.24614945750717
H           1.28913845973956    0.37751607562905    0.75940157042478
H           1.21090553418663   -1.34064235325622    0.71877069517632
