    26
        -50.45352279  Gyration_radius:  2.59993003581 Dipole_moment: 4.460
 S           0.93110983900560   -0.16580553756658    0.21506849761906
O           0.08071635094001   -1.04129697921727    1.01766877519534
O           0.42161058141798    1.19502041540399    0.17975142474874
O           2.34479603979275   -0.15440725318257    0.82665880886463
O           1.08459036912132   -0.71436215377254   -1.14366465081550
O          -1.62482323577318    0.62020181003892   -3.27058303607306
H          -0.84556879652352    1.15420275698854   -2.93540983051685
H          -1.62089002540821    0.70178439324636   -4.22606273074197
O           0.57264887858398    1.69846786132320   -2.38744369799418
H           1.21624712197277    0.99442945363712   -2.52275105634030
H           0.45220219293410    1.70735788811538   -1.41207036780976
O          -2.09840701938449   -1.92882477869780   -0.02440912781169
H          -1.31703375257793   -1.54203799315528    0.46074426113199
H          -2.18140764753037   -2.83310199675856    0.28565999940720
O           1.84968816063909    1.79885333303092    2.37934358785720
H           2.31723116956187    0.60172387123860    1.49738077664068
H           1.24526811609842    2.08569883295717    1.67866697468163
H           1.27501404710556    1.31904299754615    3.02726224836970
O          -0.94397787097895   -1.58782010052411   -2.24825492110124
H          -0.02337831909410   -1.27550832377769   -1.80625181849904
H          -1.53665904444426   -1.77411918111085   -1.42551627678712
H          -1.30749859835158   -0.72946118710844   -2.70494444625624
N           0.10731880914679    0.17460473042952    3.61375040299725
H          -0.81359914338642    0.51765831905680    3.85658474241558
H           0.39176739135314   -0.48009662326128    4.33134738974077
H           0.02303441578165   -0.34220453487786    2.73747408109233
