    26
        -50.45731622  Gyration_radius:  2.44429867384 Dipole_moment: 6.858
 S          -0.41189614811240    1.31485117918256    1.45164665156955
O           0.02964764127204    1.29302799300065    0.03342508843148
O          -1.00763032498919    0.04450092567886    1.82689943939825
O           0.69926045063830    1.69338140800108    2.29651827548873
O          -1.51174961586933    2.41669524324302    1.52854771591101
O          -1.93785165854106   -1.15162731693805   -1.76034915072686
H          -2.39591590900481   -1.51127748766964   -2.52071338935529
O           2.18617986472034   -1.56607309708157   -0.27175321954207
H           2.66115951917218   -2.36805642205971   -0.04992166822725
O          -3.00268931547891    0.66148212899941    0.17080489024572
H          -2.56083947082888    0.17350655885319    0.88322210851227
H          -2.22252510552788    2.05109573992956    0.96335229173842
H          -2.74533028576396    0.18752729948208   -0.63519785295409
O          -0.28032981690706   -2.01009458336598    0.34991903178578
H          -0.53538049531704   -1.31951387283515    0.99949865189951
H          -0.91445201323374   -1.90159854654925   -0.37673470668057
H           1.22555946900480   -1.74842454704156   -0.02479134898315
O           0.45589164074196   -0.08061630075361   -2.23047782485999
H          -1.10503546461295   -0.74145112424783   -2.09169810567526
H           0.24203479576238    0.52897983544079   -1.49985546627541
H           1.12377707022991   -0.67967054064182   -1.87826160768782
N           2.46723131793888    0.94233956717285    0.56560005886956
H           2.56513010217150   -0.08316649619516    0.36110137685074
H           1.53333988752108    1.22427498901874    0.09663261652457
H           2.17527063145948    1.14176094823324    1.54735822901410
H           3.26714323355343    1.48814651914468    0.26522788473590
