    26
        -50.45731617  Gyration_radius:  2.44449268633 Dipole_moment: 6.859
 S          -0.18175296364232    1.46441533241030    1.35128783141372
O           0.05597947913257    1.28966789331063   -0.10456759235255
O          -1.24230780169838    2.60077121595226    1.46726395011049
O          -0.73914470011313    0.25548397944428    1.93225792641304
O           1.04291916391935    1.89081455144361    1.99180917757673
O          -2.18633779657309   -1.25870226286100   -1.35000782788632
H          -2.75009316701168   -1.68240732116397   -1.99798594942626
O           2.10216269534076   -1.65232018631778   -0.40598687608578
H           2.59082939546646   -2.44026031851777   -0.16459023135602
O          -2.93875709626088    0.76657795014128    0.51642052439851
H          -2.03151912893893    2.20247964673439    1.04684115453816
H          -2.80613909709713    0.20843906776352   -0.26546807215147
H          -2.40797609745912    0.33779869970662    1.20589329415559
O          -0.26221353009838   -1.95578280163036    0.58624853750874
H          -0.41143783424433   -1.19681998003789    1.19099380528763
H          -0.99012174393855   -1.89947623472196   -0.05324384142682
H           1.18150330115675   -1.77968202053969   -0.01446278037190
O           0.13591092237829   -0.31454175672394   -2.25222941047952
H           0.03768419945779    0.37048761149046   -1.56487999720315
H           0.83626852269952   -0.89675909748169   -1.93697301393614
H          -1.40180137640577   -0.90879921846455   -1.83339964477150
N           2.53795687155987    0.91724541691566    0.12043926301201
H           2.58819694743756   -0.12637725722717    0.01099565992381
H           1.55348722245334    1.18059055874170   -0.24296427320507
H           2.38889064320192    1.22238392896121    1.10727943778204
H           3.29781299927641    1.40477259267182   -0.34097105146789
