    26
        -50.45444099  Gyration_radius:  2.55353809605 Dipole_moment: 4.672
 S           0.60291838922776    0.93491894364349   -0.88274643315093
O          -0.10763403018051    0.02536468191141   -1.73540612420216
O           0.88864211716800    2.23504733388887   -1.64524588284268
O          -0.28454258489384    1.40541983671653    0.26529450941855
O           1.83551559328161    0.40501590313434   -0.34354317921085
O          -0.23171681835938   -2.69253047393081    0.64557068260492
H           0.01885376765560   -3.46705289598339    1.15119065553760
O          -3.31609665347432   -0.20349255499459    1.06398235250693
H          -3.48277451863080    0.68829012062244    0.75453006480639
O          -0.83068671101542   -0.37281929224146    1.89070754100340
H          -0.56204448858655   -1.23274314001128    1.49770847837326
H          -0.47691316189915    0.63463954367489    1.00308718751844
H          -1.81913743294088   -0.33617528366853    1.78296630204470
O          -2.22615499775750   -1.52860696634744   -0.96727552213072
H          -1.57895850050040   -0.93446012218403   -1.38220630110307
H          -1.69812333792148   -2.17235867557850   -0.47449133805511
H          -3.08223530534703   -0.73213029299393    0.26278143705635
O           1.59520170153552   -2.12478332204929   -1.15910362523038
H           1.05341755704809   -1.89280427801048   -1.92059273509895
H           1.89324251617992   -1.26360128738655   -0.80927507556381
H           0.49338291612953   -2.53988309001814   -0.01669004591174
N           2.33225636257433    3.12011218194774    0.27947466548606
H           1.76819858801122    3.45969927766890    1.04723731422638
H           3.17909982785820    3.67035705486004    0.22347831084097
H           2.57041155371662    2.14822461715214    0.45760527923818
H           1.46587763111359    2.76635221017315   -0.98903851818131
