    26
        -50.45444087  Gyration_radius:  2.55444846754 Dipole_moment: 4.669
 S          -0.65051468370324   -0.03032716913211   -1.26103054694720
O          -1.40606753631227   -0.39672419583588    0.01243227549780
O          -0.37625861563675    1.38940655520363   -1.25865467073953
O           0.51251213512446   -0.85609605285622   -1.41815825593855
O          -1.66502854305425   -0.35932229842748   -2.36379897966516
O           2.37027001969180    0.58890933952051    1.32449728438648
H           2.93669985252266    1.17723870111475    1.82582889732433
O           0.04427712002928   -2.41871299288484    2.51648489334479
H          -0.69721825521256   -2.87286178710394    2.11331445972698
O           1.87063848433344   -2.09016772991655    0.61297245372160
H           0.78107464258095   -2.46017029054721    1.85946095699764
H           1.39763121968631   -1.81414296640863   -0.18962013546689
H           2.30142133176964   -1.28808447532835    0.94038342004515
O          -0.18474258150692    0.16028502364144    2.08601837939963
H          -0.88917322517403   -0.10223470125732    0.91866276531755
H          -0.13326966075969   -0.76414448106597    2.45056479238809
H           0.73857621436726    0.38995981980156    1.83959498089131
O           2.29076384585049    1.29996622687473   -1.20632678071498
H           2.33322265424862    0.44702660322429   -1.65120471676597
H           1.34942890590164    1.55143083287061   -1.26536327666256
H           2.39112217589778    0.90885854696545    0.38387197359896
N          -3.17275228336898    1.58538394512260   -1.64445483517324
H          -3.70513277087103    1.36215844791711   -0.81397626133658
H          -2.31663782496644    2.05580850182744   -1.36382030315549
H          -2.40133460824376    0.33500434751253   -2.21629006955783
H          -3.71950804312019    2.20155226921234   -2.23138869051827
