    26
        -50.45444093  Gyration_radius:  2.55240980308 Dipole_moment: 4.680
 S           1.03615616919205    0.95734944595607    0.16727633703899
O           2.09964282423111    2.01527013245469   -0.15376231120859
O          -0.13946434267220    1.60038514751593    0.68069909530086
O           0.75892423989443    0.33259252882065   -1.19631638568069
O           1.59636997330659   -0.04668695497469    1.04416050266978
O          -2.50278324320090   -0.13258962653093   -2.42318313591688
H          -2.02504962625214    0.49858144336792   -2.96368254519426
O          -1.97918296936293   -1.45348193852228    1.30102327224141
H          -2.30206242851238   -2.24507418332090    1.73399938982375
O          -2.70684348001567    0.93809454151520    0.00210325039257
H          -2.74104389262019    0.12994965070526    0.53284658935914
H          -1.84894362715434    1.34329915407239    0.21182485594044
H          -2.73014652158946    0.34076547540788   -1.58631444213859
O          -0.34216114196330   -0.12894792021380    2.87644816780175
H           0.47880791921358   -0.22419583113522    2.35702333843380
H          -0.61265466322509    0.78203010324094    2.72089832359049
H          -1.37704325418585   -1.00153672728881    1.94976779823396
O          -0.77200061921766   -1.60373529117973   -1.10874438172699
H          -1.47229072170328   -1.22932123612284   -1.70827734911747
H           0.12942702786935   -0.54890490171938   -1.14467605841027
H          -1.18264579277901   -1.62212670607208   -0.21578265395243
N           3.83996829999773    0.20310073938434   -0.66137593763437
H           3.69561455442983   -0.21366563378194   -1.57151045708489
H           2.91205125675355    1.45364883051128   -0.42087537735730
H           3.35689540783869   -0.35990626928882    0.03335197664661
H           4.83045865171786    0.21510604719941   -0.45692185204550
