    26
        -50.45444099  Gyration_radius:  2.55362327209 Dipole_moment: 4.673
 S           0.39721243350052   -0.73698771329572    1.14663472428308
O           0.63211437786165   -1.12722134580202    2.61150591417839
O          -0.18144810343197   -1.85260373816318    0.43157482116827
O          -0.63741969797946    0.37854185285695    1.25665407748690
O           1.61979198823181   -0.24297339977437    0.58047296318697
O           0.30553557999295    0.26754895576413   -2.74866550901859
H           0.03313834425716    0.09806322068052   -3.65164494819945
O          -0.25009444837824    3.45401957309815   -0.42097566503199
H          -0.21327534901880    3.58519663826039    0.52776604452552
O          -1.46507928578747    1.18330623897485   -0.92725108684849
H          -1.17653891324704    2.13007733182222   -0.82499785724657
H          -0.88183481018246    0.81211152185987   -1.62584376335140
H          -1.03592515185471    0.69085044206735    0.29799263582180
O           1.83275386959493    1.93275498833887   -1.06617351503560
H           1.89637280825692    1.23537560961404   -0.39258120391009
H           1.47447155253370    1.49407067665110   -1.85053989276583
H           0.61301713403553    3.04554244202739   -0.67463776851346
O           1.42892874607388   -1.86523740560620   -1.69675630455794
H           2.16907109771122   -1.48016642135428   -1.21602423346034
H           0.77035617479788   -2.05819981236909   -1.00258651971313
H           0.72451116115411   -0.57046479974826   -2.41724348476556
N          -1.72294970995549   -2.12427322647744    2.78882244044118
H          -2.42883260977426   -1.40633675871728    2.88487095839983
H          -0.26097128082979   -1.54285918258120    2.88661031873164
H          -2.01666370479979   -2.94641429637031    3.29961544394832
H          -1.62624220273602   -2.35372138157681    1.80340140021360
