    26
        -50.45444101  Gyration_radius:  2.55391057362 Dipole_moment: 4.677
 S           0.63365353997348   -0.54285900885406    1.14833067257911
O           1.58455899588459    0.52439283441189    0.93038402980388
O          -0.76993700425655    0.04753114290779    1.23917841778718
O           0.68359075299950   -1.58777415898720    0.16603441612252
O           0.84030182726127   -1.14257872141263    2.54507119181123
O          -3.21752180747325   -0.57766911050570   -1.22062513655241
H          -3.47860414603790   -0.96733432653462   -0.38468947895499
O           0.29688279192315    0.57947502326471   -2.70151815289610
H           0.50560713243437    1.17699586803775   -3.42107084094960
O          -1.44780511214348    1.30862331474646   -0.77394443862415
H          -1.04155688969079    0.64400588433489    0.37559573290144
H          -0.79285644505279    1.12041292106401   -1.48223326660361
H          -2.24260894984193    0.75532994480090   -1.00236235540374
O          -0.99397253115181   -1.81921239955221   -1.98424755327124
H          -2.50380538261843   -1.15745335803023   -1.58200180666453
H          -0.58418389696605   -1.11172648684508   -2.50152474991724
H          -0.43459659189746   -1.91298755192691   -1.19531141903005
O           2.48678284161113   -0.20389375382295   -1.47353302457754
H           2.32923212846369    0.20736579017995   -0.60238790183552
H           2.30591160755504   -1.13825399999658   -1.32698444132062
H           1.16287701398846    0.31960440964368   -2.28902530134095
N           0.93445932565393    1.19083984766414    3.60236859136129
H           1.51481695142923    1.50647548171792    4.36829596765541
H           1.33761070414011    1.49926286780567    2.72182198076787
H           0.87739399030078   -0.31749720677828    3.14845995987455
H           0.01376913350417    1.59892473268715    3.69591887726913
