    26
        -50.45444097  Gyration_radius:  2.55284424154 Dipole_moment: 4.675
 S           0.71231389448820    1.18833405760563   -0.31216754971099
O           0.91239285130247    0.53945244049547   -1.58872326196578
O           1.18811379888111    0.26054493446572    0.80120989828669
O           1.66309048150046    2.38554591941893   -0.18568617861583
O          -0.63535462040071    1.61968850565807   -0.07364862606730
O          -2.16484840249324   -1.59860312821184   -0.69314256531158
H          -2.55499646718784   -2.34357803067875   -1.15264401044277
O          -1.03650533808529   -1.19296120426065    3.10777226550487
H          -0.44327247763475   -0.58429265261919    3.55084375473325
O           0.04029674786704   -1.92647629748749    0.82941509150103
H          -0.33638453182831   -1.85230146562003    1.74739370982291
H          -0.73559009817336   -1.86685781284914    0.22887199094304
H           0.71911429455766   -0.71673402918126    0.77552856078960
O          -1.63344046664643    0.35784086502269   -2.36847113898938
H          -1.90787146316800    1.12978818262637   -1.86247224664290
H          -0.66001994097313    0.36082394719418   -2.29582537368247
H          -1.99731687604166   -0.89913220723370   -1.37895686631504
O          -2.48459931093977    0.25059872002777    1.40816258170351
H          -1.68602732956889   -0.63338944336424    2.61674468139739
H          -1.88097956310376    0.88002094453855    0.97963953868854
H          -2.66480035094552   -0.42297570393462    0.73749335693311
N           3.64467570860328    0.97709262123700   -0.99857084235152
H           2.56747195271832    1.99277321373064   -0.45819936943130
H           4.41422442827198    1.26428370466693   -1.58881704277064
H           3.99535475892587    0.36656608816404   -0.27249160567446
H           2.96495834007380    0.46394780061567   -1.55325875232119
