    26
        -50.45444099  Gyration_radius:  2.55396503711 Dipole_moment: 4.679
 S          -0.45657384807601    0.28399187157794   -1.31328705011786
O           0.85583417970997    0.87022418048944   -1.47018187377515
O          -1.14122722821206    0.90576894236927   -0.10021344616115
O          -1.36013451237888    0.72052123206714   -2.47353718617060
O          -0.45628945582385   -1.14790779951781   -1.21896486217480
O          -1.83293750339634   -0.96536850938341    2.80809762449874
H          -2.64900499682982   -0.69564143465617    2.38383503893499
O           1.91395598581094   -1.34059373693892    1.50351630416602
H           2.74262846158352   -1.37305600933172    1.98374668718221
O           0.11165326754233    0.60563771199474    2.00749615695963
H          -0.56203159501703    0.81729849773957    0.81187060446832
H          -0.59365799713673    0.10417273482363    2.49841903778611
H           0.82488687050472   -0.05048941697033    1.84346763585041
O          -0.58343435155543   -2.58292992309081    1.10795369978314
H          -0.66777069574246   -2.18674003341563    0.22472544514195
H           0.33243421347315   -2.41776415255732    1.37228401721260
H          -1.46569885645606   -1.69715728250576    2.25510328434006
O           2.33863118530328   -1.31634967326280   -1.09195536177319
H           2.14639755778464   -1.34072449415213    0.53729140623571
H           1.65183230077267   -1.91242213282045   -1.40850623063124
H           1.99241222001583   -0.42663368487699   -1.29533769944682
N          -0.62902336290770    3.16298902891351   -2.20721812497947
H          -1.08495711223633    3.60934345144489   -1.42247960459647
H           0.26352631792710    2.79069967294146   -1.89450242741050
H          -1.21888333161323    1.73303786203399   -2.50879227957027
H          -0.47256770303613    3.85009307708673   -2.93283080576557
