    26
        -50.45444091  Gyration_radius:  2.55247173419 Dipole_moment: 4.683
 S          -0.43500629918187    1.14152444602918    0.72473414612762
O          -0.41262563827609    2.38594559457172    1.62143909989884
O          -1.16920537896040    1.42731158406340   -0.48776759129682
O           1.03852302337489    0.94504157759667    0.38318131014687
O          -0.93784921096791    0.02308745353118    1.46999672995549
O          -0.82199130854257   -2.32587503125641   -1.27986574784931
H          -1.07324064600516   -2.81779070503792   -2.06301002261001
O           2.63909649996220   -2.17044547222433    0.69099508628077
H           3.00896648487316   -1.53763365227216    1.30861716667611
O           1.44696526774823   -0.86408528690605   -1.24810108291574
H           1.20643926703729    0.18614202422705   -0.37295231205117
H           2.03499060833132   -1.41802666469662   -0.66722682685784
H           0.61571616080521   -1.38112772935268   -1.33805744677163
O           0.09309288664294   -2.51036395285923    1.37812564465575
H           1.75724858323359   -2.42577308974412    1.05609466454255
H          -0.26757773725124   -1.63331378008869    1.59006555957912
H          -0.27877744271661   -2.73428650650776    0.51352902025373
O          -2.75986746906720   -0.71503956633285   -0.52724420214436
H          -1.59615800479044   -1.74729906100932   -1.04840878573038
H          -2.74407868751850   -0.82124993161962    0.42969726092266
H          -2.31400015116443    0.14016376197340   -0.67798844071170
N           0.23787773163100    3.87842472455161   -0.35825414520878
H          -0.29515243235004    3.23203198896615   -0.93362668524851
H           1.21735964206131    3.78696502800805   -0.59300233618893
H          -0.06067316279150    4.82573680402486   -0.54930957533424
H          -0.13007258602824    3.12993543231009    0.97833952186299
