    26
        -50.45444090  Gyration_radius:  2.55320745693 Dipole_moment: 4.671
 S           0.35357819327490    1.28805735889254    0.48293547125593
O          -0.00376645447945    1.49419289573804   -0.89147659320382
O          -0.77294785092543    1.08878589715918    1.36722629094486
O           1.31355211006700    0.11058631674746    0.62136164911689
O           1.19553950412552    2.47176426856999    0.97635239870505
O          -2.00213258564696   -1.50252912049942   -1.20571835809201
H          -2.74892973059992   -2.10202304039809   -1.17131730583412
O           1.84370649033457   -2.18757920593381   -1.99375600366945
H           2.64522567613360   -1.69310994337917   -1.81554587485941
O          -2.71191346801508    0.91721608304181   -0.45874357716948
H          -2.33984232271624   -0.61262117893554   -0.91994394941008
H          -2.17608407007432    0.98967157609475    0.35393089124340
H          -2.24331391841080    1.46492709370603   -1.09722223638686
O           0.28284707689694   -2.07622885879060    0.11344288600336
H           0.84226908916933   -0.85043019968241    0.44927860269076
H          -0.58836231002961   -1.90726941875496   -0.30904250490789
H           0.88976806222631   -2.32462908554156   -0.63486603257814
O           0.03182993196794   -0.43280465238107   -2.83492049025327
H           0.10822280696833    0.35207348202652   -2.26726541873041
H           1.23979895775861   -1.56761646353869   -2.47023030726983
H          -0.77387782721101   -0.87996354510051   -2.54008199205104
N           1.15635604865954    1.57774212157549    3.37874790232178
H           0.24060217861016    1.20001721656348    3.15134831797878
H           1.31709319976090    2.27043510603813    1.97165858179469
H           1.10009547622482    2.10327757393309    4.24114301525388
H           1.80068574591081    0.80805773284215    3.50270464713332
