    26
        -50.45289436  Gyration_radius:  2.64831156529 Dipole_moment: 2.979
 S          -0.55647463192348   -0.57990567684139   -0.13447619744883
O           0.69452950417513   -0.90344055106871    0.70535485614911
O          -0.17011643575866    0.66759324023928   -0.92201214613509
O          -0.78261661691160   -1.66953595734595   -1.05271959479869
O          -1.64485102226079   -0.25517831430913    0.73778171197871
O           0.51006974829400    1.72189255752581    3.55442961167929
H           0.01410016325302    2.10193057199823    2.77885700721249
H           1.43886239854812    1.90491326622434    3.40514387270241
O           1.82870761751205   -2.22960458850649   -1.49070508370931
H           2.18795079394420   -2.06934882089093   -0.61435746461121
H           0.86760322441792   -2.30896757029609   -1.36512757568536
O          -0.96841932258677   -1.12993638673765   -3.70720389541712
H          -1.83122211127418   -0.76594523628583   -3.90955510040427
H          -1.01794092844117   -1.47943543255900   -2.79925158061041
O           1.28862488084249    0.00451229344579   -2.81532903938652
H           0.49160292043795    0.43657214281467   -1.73410059506249
H           1.70994183480718   -0.81297227745248   -2.45584878123948
H           0.59215291850481   -0.32090260204510   -3.42328200027571
O          -0.19894821294496   -0.75212252113229    3.02491650090857
H           0.41069457454914   -0.88113471866069    1.70941722775015
H           0.08675507183266    0.13938282989393    3.36536572687729
H          -1.10909566447213   -0.64058121679161    2.72177027351171
N          -0.81101974746083    2.44470615756137    1.34466448972027
H          -1.53022179851372    3.15543521462274    1.40412219256028
H          -1.26943590088046    1.56092587188610    1.12985922582220
H          -0.23123327769705    2.66114771471131    0.54228634791164
