    26
        -50.45444095  Gyration_radius:  2.55441240582 Dipole_moment: 4.675
 S           0.58272760897301   -0.51739587799763   -1.18591218126846
O          -0.39566408886558    0.32096839398710   -1.84219450849811
O           1.18501333396552   -1.49963385073227   -2.19879766239720
O           1.63730825606558    0.20526327931218   -0.53403768703813
O          -0.12832884105161   -1.44123004109010   -0.20220781806872
O           0.31250357090336   -1.13619400519541    3.28605301795948
H           0.67104152794233   -1.97005848551997    2.97814947395565
O          -0.52593788221632    2.30526421916554    1.45974750240599
H          -1.09567780834357    3.02974276020296    1.72221597033033
O           1.74650748538125    0.78594979335757    2.13856478307131
H           0.95447575964818   -0.44065682110624    3.00270463658055
H           1.87966871975989    0.52633926930434    1.21175344194539
H           1.08142669499330    1.48807964055321    2.11086647170616
O           0.43144894899002    2.69952251652397   -0.95799634509032
H          -0.19639652871768    2.52037031550014    0.54718535792621
H           1.34527747476896    2.41357957738302   -0.85629412769952
H          -0.00033045898835    1.95422315583750   -1.41726941311446
O          -1.41996335977424   -0.24196582960133    1.52862277682668
H          -0.93398919168870   -0.60430997606726    2.31764708194365
H          -1.16982631497569    0.70764030178095    1.48786454612437
H          -0.73596808272852   -0.91121503984858    0.52245862472440
N          -1.14092211559170   -2.10679179792016   -3.08944420195818
H          -1.40459468114536   -1.15369188904782   -2.85464539057698
H           0.36086276893152   -1.88862644522311   -2.66314903635011
H          -1.62905503977390   -2.73858123679195   -2.46855052459292
H          -1.41160774645500   -2.30659191677385   -4.04333477883701
