    26
        -50.45444102  Gyration_radius:  2.55337289519 Dipole_moment: 4.673
 S          -0.59479903398085    0.82361680415963   -0.99225504387600
O          -0.76355794928030    1.88383549709835   -2.08805793142507
O           0.73410870854300    1.21013696170240   -0.35076110239685
O          -1.65143988806054    0.96031665932290   -0.01474515868307
O          -0.51071907037434   -0.47696881842661   -1.59276517961324
O           3.28562843862928   -1.14891416528827    0.22932493103930
H           3.57001273786382   -0.50207820332737   -0.41831700263010
O          -0.30317374503826   -2.30658641873888    1.51899440441813
H          -0.56082857620714   -2.76569177499146    2.31973080877948
O           1.22911428201327   -2.45132747960679   -0.84044279124657
H           0.75467364032909   -2.69389642834076   -0.03292632127324
H           0.66646567956788   -1.78957603433035   -1.27593218238770
H           2.64804392726339   -1.74175223771206   -0.23767266173057
O           1.30902977654932   -0.14376839071083    1.63378919092385
H           0.95544477004847    0.64879135906707    0.55000418588808
H           0.69389384427053   -0.90979247263844    1.66403087956196
H           2.16490956262893   -0.51234707019844    1.28513381826341
O          -2.41925174579146   -1.59156685049402    0.13056251123901
H          -1.14400322325213   -2.07316620095475    1.04339804053184
H          -2.32582511250585   -0.62227082947061    0.19807873928060
H          -2.14019329527147   -1.79114621568292   -0.76918393731954
N          -1.13060462974411    3.72225179953541   -0.33958002849428
H          -0.26128001032386    4.01381549576537    0.08725341424475
H          -1.54716884748594    2.99629431727070    0.23703980613353
H          -1.75656745294057    4.51526665692839   -0.38848829609123
H          -0.90191278745610    2.74652402006052   -1.55621309314184
