    26
        -50.45444104  Gyration_radius:  2.55338420354 Dipole_moment: 4.674
 S          -0.38006890040915   -0.40779079526982   -1.30588411070433
O          -0.33723608485150   -1.06707761692515   -2.69038477386851
O          -1.18442680810281   -1.20188890621409   -0.42180414065010
O           1.08301569066776   -0.43272101433490   -0.87494513743392
O          -0.81422482520870    0.96554347807624   -1.43312447466912
O           2.07924491897245   -1.60971263030023    2.29221538014464
H           2.41774239625319   -2.18157930741193    1.60148595320405
O          -0.91318846734783    1.01989440551053    2.41774989248777
H          -1.08276442379935    1.74460463152129    3.02138848973636
O           1.50918066208186    0.73519970454406    1.25968961249847
H           1.87758169481777   -0.04607925789120    1.75351616473203
H           1.27248374490357    0.12651993801226    0.03438963854833
H           0.64028639905356    0.91795123119373    1.68128821448491
O          -0.57285269503686   -1.76679666910784    2.18542392723776
H          -0.82343234251589   -1.74416402471341    1.24690727704241
H           1.11427989579601   -1.80901565929383    2.36407561262950
H          -0.79993880906716   -0.89113140223408    2.52842680902777
O          -2.68269381221063    0.99160635810230    0.47220695519287
H          -1.61667163102718    1.06428361500430    1.71719594878368
H          -2.08789313266166    1.18260666843133   -0.27784824633596
H          -2.86845791515479    0.05040455489612    0.38937503579359
N           0.90636337834624    0.94480685173640   -3.67913265701717
H           0.80281386205795    1.35260595342317   -4.59894923030027
H           0.17603347939261   -0.38625060067147   -3.25537161953093
H           1.88595368433937    0.94238989800227   -3.42756057661640
H           0.39887003072104    1.50579056591298   -3.00032993441267
