    26
        -50.45444100  Gyration_radius:  2.55259880247 Dipole_moment: 4.682
 S          -0.02279427217611    1.30099788576970   -0.56932057009948
O          -1.10925177962341    1.50991039767737    0.36171462363038
O           0.45045591021653    2.65087870137054   -1.12335159857566
O           1.20037804523936    0.80132387984347    0.19276290803187
O          -0.33864420948634    0.42067291650982   -1.65764528823739
O          -1.46630936133099   -2.32429201255677    0.41267670599467
H          -2.03235474710799   -2.88501620467411    0.94511406968648
O           2.46730461179415   -2.45368878670467   -0.21769567367479
H           3.09915873511645   -1.80393651576089   -0.52962881217503
O           0.80345377527853   -1.29018822584832    1.44535310896776
H          -0.05414159829989   -1.66366908665564    1.14313337104615
H           1.49898168319533   -1.83638921415499    0.98933038934383
H           1.00492577343110   -0.08701127946025    0.78307683580667
O          -2.82353671737133   -0.30383042520550   -0.58329400269745
H          -2.37439150529093    0.42603614584098   -0.11590614616503
H          -2.47607071208979   -0.25586705798913   -1.48007146570786
H          -2.04029305044342   -1.59137988069268    0.06472300493872
O           0.31710498870170   -2.23424150520334   -1.76628542885082
H           1.75365132261843   -2.49081652802685   -0.89992111906799
H          -0.36174310698298   -2.52654763171488   -1.14204361981877
H           0.15125106165250   -1.28560265495172   -1.89571440327367
N           0.49860560847878    3.67090738294125    1.22763031779886
H           0.55943037827288    3.22168228598714   -0.28120631950491
H           1.31288889781636    3.37610515912101    1.75002117806238
H           0.25198004859565    4.61218898719238    1.50363227589262
H          -0.27003979021179    3.04177327734317    1.44291561863027
