    26
        -50.45444105  Gyration_radius:  2.55323556889 Dipole_moment: 4.675
 S          -1.03867754226611   -0.87230708116735    0.41993673544259
O          -1.53300255983041    0.44737646329253    0.69053402068035
O          -1.06984186218040   -1.24466043078284   -0.97686809748521
O           0.38187795216625   -1.03698512381519    0.95065005388594
O          -1.82994201362868   -1.89474082589593    1.24563102647826
O           2.34527484282846    1.71895840163591    1.92616160556144
H           2.14740978862462    1.16462306515917    2.68263153778226
O           0.64039580888427    2.14077066911695   -1.65160511526765
H           0.98351774396896    2.50798140949698   -2.46754737174978
O           0.02378940134405    2.67016181838081    1.04565627588215
H           1.51109324001822    2.20567262361598    1.71790785882781
H           0.24123377683281    2.78489905934103    0.10994847067977
H          -0.61364088997184    1.93717295566627    1.06972241865320
O           2.05864461376579    0.30690174181819   -0.26769241038522
H           2.37336973518841    0.84135781674243    0.51032692662731
H           1.12044151418720   -0.48657563434731    0.37871232745560
H           1.57574733422909    0.94524620937144   -0.83819567327426
O          -1.75210608628071    1.11378299293933   -2.02300035779392
H          -2.21508967064448    1.40194060757659   -1.22936682632597
H          -0.26127199047096    1.77908182623218   -1.86096109738326
H          -1.54434861058186    0.17605216996132   -1.84882593843315
N          -0.66740223753405   -3.84690341826782    0.05864888458855
H          -0.62027802831949   -3.23651090525399   -0.75263495417406
H           0.27079345301266   -3.99401514836898    0.40654532224502
H          -1.46517463284625   -2.79151089252359    0.91533170943427
H          -1.06281305051076   -4.73777034991530   -0.21164734195504
