    26
        -50.45444103  Gyration_radius:  2.55334677784 Dipole_moment: 4.674
 S           0.09698848423758    1.41518455589937    0.06437822761691
O          -0.54334295205685    1.35626545384082   -1.23068716136414
O          -0.74529219722538    0.64336210330551    1.07522568794235
O           1.45474128620668    0.95087379633895    0.07353063795811
O           0.04291911469866    2.85042997720272    0.60333595119649
O           0.38050772606286   -2.35192189344906    2.54764775446366
H           0.29507247534540   -1.66505146565621    3.21068494627201
O           0.75322756676967   -2.26673985356082   -1.41936983579914
H           0.59505964356510   -2.94641368009414   -2.07615123323556
O           2.26086627161779   -1.54714961596190    0.84879540730685
H           1.95777217016728   -1.99774374458546    0.04808709717409
H           2.10931855083876   -0.60222346969546    0.68060411920696
H           1.19368652209841   -2.13373523134059    2.03072778128732
O          -1.09743503215965   -1.72583632104832    0.47082195611683
H          -0.67784568649629   -2.12110078829630    1.28181174998547
H          -0.94095526629731   -0.38081424114810    0.77822278276900
H          -0.48424772903376   -1.94268968901251   -0.26610887818293
O           1.34239823626377    0.02407817832361   -2.56912817350528
H           0.97514571927339   -1.43659619731954   -1.91861772468939
H           0.56499421563593    0.54171423552878   -2.28534933177942
H           2.05565020859126    0.34725347012500   -2.00870715124576
N          -2.44339279825558    3.04613575417346    0.01029984382038
H          -0.93728096749306    3.11089600357674    0.47080346889549
H          -2.94066528259491    3.85514464687402   -0.33801351598274
H          -2.23938473246678    2.41568192152845   -0.76036876533881
H          -3.02850557732139    2.56099610453930    0.67752437913498
