    26
        -50.45444095  Gyration_radius:  2.55272152006 Dipole_moment: 4.676
 S           0.95810773703903    1.00261304706718    0.30653732868997
O           0.89193254166044    0.98479259743853   -1.12679510804483
O           1.57163581625377    2.32844991410620    0.77449140660642
O          -0.44134479664977    1.04620471310603    0.91195843241491
O           1.69010555645436   -0.10348452306896    0.88224727169537
O          -3.32549216436226    0.36083526191659   -0.98201056027747
H          -3.32286640087002    1.27466066825225   -0.69272319498164
O          -0.44646297652600   -2.36506674039587   -1.38858551092447
H          -0.49415838953129   -3.32079527656130   -1.44016620024797
O          -1.73449227650994   -1.03108596743164    0.57361134537642
H          -2.49122621248025   -0.62080887706895    0.07457710091785
H          -1.25717694874313   -1.57775344386785   -0.08936864221686
H          -0.98376327730858    0.11326415205516    0.80692100389405
O           2.05558023171073   -1.55722825867207   -1.32572549705833
H           2.06867833708822   -1.17186696263861   -0.42897192920850
H           0.51907539901914   -2.13006133709253   -1.37550727327802
H           2.02983245150093   -0.79136817271142   -1.90886623405061
O          -1.22874434555405    0.06051112388243   -2.58929440826020
H          -0.48388199088795    0.53206944738639   -2.18066501710642
H          -1.04529628724168   -0.87776283015610   -2.44114234884852
H          -2.65978023424129    0.30221858801232   -1.70966612064972
N           1.63638104853379    1.51286570398030    3.20385899501912
H           2.34321419391269    1.69329869856618    3.90447554287229
H           1.65437926647973    2.20101731550610    1.78609160795818
H           1.77204938927125    0.58295905723280    2.81676099284145
H           0.72371436197260    1.55152210114438    3.63795700686565
