    26
        -50.45444093  Gyration_radius:  2.55323673396 Dipole_moment: 4.674
 S          -0.82016563843397    0.60505990544705   -0.98890400817780
O          -1.84450213815580   -0.25037754072100   -0.43248764539141
O          -0.20093886468576    1.43771793194345    0.12917740442937
O           0.19484087825904   -0.09160299968470   -1.72619454859811
O          -1.46563129091402    1.66880784906755   -1.88621608707390
O           3.13395132659671    0.98811881492488    1.16792196398028
H           3.01976652509260    1.85470653298345    0.77457074433318
O           1.05211020737862   -2.40161626576087    0.92025079439253
H           1.03609789643457   -3.16818371298144    1.49511817780593
O           0.79385038006814    0.08466641007334    1.94083016031753
H           0.18629531637830    0.83954323073032    0.94632470137430
H           0.84165327524608   -0.84639995656037    1.62948827463414
H           1.72172486033932    0.43393201409950    1.85676957176284
O          -0.75118685717276   -2.62236664727174   -0.98134293625355
H           0.35673158775380   -2.55319434236070    0.22658857142182
H          -1.33181554993758   -1.87954444585052   -0.72856277387750
H          -0.26996360859942   -2.29265762299415   -1.74748508069845
O           2.65303225359273   -0.79191215254404   -0.74772898307229
H           3.13118536089307    0.34469479466568    0.41821916824141
H           2.33425734932835   -1.52821470186506   -0.20712993182724
H           1.87362807520941   -0.48126111742429   -1.23778479779930
N          -3.22685822274393    2.19597990802623   -0.09959245502063
H          -3.14903628572458    1.21869645107145    0.16851479992892
H          -4.20117222178218    2.43299994142856   -0.23245559536070
H          -2.84708064855723    2.76562407714101    0.64484433831258
H          -2.22077399586517    2.03678366442363   -1.30273383777910
