    26
        -50.45289433  Gyration_radius:  2.6482640449 Dipole_moment: 2.978
 S           0.15116701801972    0.00907498277776    0.80038270544600
O           0.25410315628908    1.39636674211321    1.14045067854958
O           0.18917398823134   -0.91921914302372    1.90419451299958
O          -1.13310422674901   -0.20746657743638    0.00696075303094
O           1.27588856079628   -0.36175376882310   -0.18576776718868
O           1.43948815493732    2.74430101995374   -2.50140252681930
H           0.51721128645485    2.71098442392402   -2.12695977685026
H           1.45533683882480    2.14737644143248   -3.25097377642565
O           0.94149004863772   -3.07343592617771    0.44887998753890
H           0.83194212315180   -2.42691994772871    1.16706091692943
H           1.53430414326641   -2.65628094668182   -0.18143782994095
O          -2.06084943013116   -2.30326965501415    2.53128662337309
H          -1.20969392794109   -1.83052876256204    2.49928798244311
H          -2.66993637783060   -1.74121436552129    3.01182680677470
O          -1.61928382075632   -2.63782075101101   -0.08962549316653
H          -1.36821379428040   -1.24930176946126   -0.09319364003563
H          -0.71086542295210   -3.01829747311825   -0.01901663722897
H          -2.00294176805363   -2.74100455687622    0.80628731814159
O           2.55008459617316    1.77303617053537   -0.32736695746207
H           1.88332197940479    0.47957824104966   -0.29702408724619
H           2.26148919072318    2.20199075750295   -1.17886920644209
H           2.02792504934602    2.19033636762711    0.36969890426179
N          -0.92229848692983    2.43682788179904   -1.28570368482018
H          -1.47252862618518    1.64516804100972   -1.59763549387856
H          -1.54644900552588    3.23006991121885   -1.20152592337320
H          -0.59676123690893    2.20140266249498   -0.34981439859335
