    26
        -50.45444077  Gyration_radius:  2.55203961807 Dipole_moment: 4.680
 S          -0.93709190857630    0.83639040121817    0.66457640041763
O          -1.07815946897268   -0.30264592021385    1.54404983197853
O          -1.57435471954949    2.07224473612396    1.31248282742811
O           0.53603055423998    1.22229180912890    0.57777565235196
O          -1.49038832564718    0.64330078192864   -0.64529537338273
O           2.41161106519974    0.84695867131573   -2.36963181798412
H           2.32588679556066    1.77328022492895   -2.13871494071257
O           0.33340327749790   -2.40075643246250   -1.35896535033914
H           0.57017738384020   -3.32875009630273   -1.39246251184774
O           1.99522844028653   -0.60294954724903   -0.22212360255238
H           1.41843137807393   -1.31184657302812   -0.58430859998494
H           2.35339964962556   -0.12774209359990   -1.01956695091980
H           1.17776367199295    0.40123497023254    0.27762683750200
O          -2.01326942677876   -2.07635503524352   -0.21701195541005
H          -2.41381124068251   -1.40263308196583   -0.77639840714935
H          -0.55978407462585   -2.35196875185587   -0.92592120126388
H          -1.72855936545627   -1.58590771682786    0.57750933512159
O          -0.04309048136710   -0.04833704151175   -2.86273216055431
H           1.53106579078669    0.57029337910212   -2.72206470868663
H           0.07152251521420   -0.97701719853435   -2.61706757163469
H          -0.62913602032598    0.32361534644233   -2.18272756159004
N          -0.40406846753298    1.58544780216246    3.54044310412603
H          -1.18418492973011    2.06533699418926    2.25826351014260
H          -0.47616226630916    0.60401434177276    3.28632492841023
H           0.57097205701525    1.85329528072934    3.51955745638741
H          -0.76343191375646    1.71920476959247    4.47638285019392
