    26
        -50.45289444  Gyration_radius:  2.64839764714 Dipole_moment: 2.980
 S          -0.59151508666211   -0.43631990115431    0.35148647301804
O          -1.69600290442235   -0.22994247192950    1.25655333186097
O          -0.88277131548502    0.32981142970375   -0.95356857076639
O           0.65304409643440    0.23999436669176    0.91661983274836
O          -0.27576845336732   -1.79882914099108    0.04374861840540
O           1.77445730406770   -1.10174798835586   -3.39146699499011
H           1.97215716623557   -0.20209785680255   -3.65587258022643
H           2.13607938384925   -1.21643872684939   -2.47054727827434
O          -1.19159734637606    0.74767656848280    3.73864314550538
H          -0.84481080924069    0.05420367528604    4.30137332404964
H          -1.53113078394080    0.31307782726883    2.93563498097902
O          -2.21505748425195    2.31857585846219    0.50862494793141
H          -2.03799524195650    2.26053642687965   -0.43373377571700
H          -2.30982806617782    1.39902273764072    0.81068061774538
O          -0.71815170081395   -1.48298883912982   -2.65289901579645
H          -0.85274107212561   -0.36172539198025   -1.73468469300685
H           0.18242765226796   -1.38315671352672   -3.06674659931282
H          -0.62702947532705   -2.17267558581937   -1.98304629825784
O          -0.00718121949628    2.38230218433000    1.97786814554546
H           0.42380133998705    1.19110001863461    1.35721119990313
H          -0.81259539345519    2.61501232490949    1.45622602933909
H          -0.35212576723973    2.02158933681933    2.82140753085460
N           2.44588456092989   -1.34093167196582   -0.81412176450581
H           1.55137907629104   -1.65087644813547   -0.43845285550850
H           2.66297454739108   -0.47274522416487   -0.33880536363605
H           3.14409699287870   -2.02242681431039   -0.54213238788054
