    26
        -50.45731606  Gyration_radius:  2.44461751444 Dipole_moment: 6.849
 S          -0.45415078031113    1.29840313179645    1.45248565721691
O           0.03255708671252    1.29217168305228    0.04890123698171
O          -1.06379135007945    0.02483808671728    1.79304004654231
O           0.63001612919969    1.66468641843751    2.33687157817771
O          -1.55397658767351    2.40129451907973    1.50746339621443
O          -1.88684170700408   -1.12253950069299   -1.83640660529076
H          -2.32258227486620   -1.46957261921129   -2.61551642990820
O           2.19353812237196   -1.57055116311075   -0.21549661143594
H           2.65790081090708   -2.37459482385761    0.02061309477422
O          -3.00629265958328    0.66698761135464    0.08450980326363
H          -2.58853310197351    0.16871703790183    0.80422437581713
H          -2.24749285933103    2.04343852029957    0.91633300880949
H          -2.72465633259062    0.20268660328505   -0.71904838478387
O          -0.29534928029219   -2.01220153194939    0.31327348827642
H          -0.56921669715108   -1.32890782262827    0.96293883370409
H          -0.90608851962534   -1.89353373206071   -0.43148021076513
H           1.22409498607463   -1.75192770447996   -0.00599483299001
O           0.52504345972863   -0.05622742637591   -2.21634421808619
H          -1.04253223359641   -0.71167380961189   -2.13614849758400
H           0.29078798592479    0.54475907866891   -1.48465674516458
H           1.18004765213946   -0.66202207505062   -1.85190843613122
N           2.45108904627036    0.92878438297654    0.65504384153025
H           2.55282468531497   -0.09495665319725    0.44279286883707
H           1.53327004298123    1.21812769035801    0.15986139263251
H           2.12897843827941    1.11855300906478    1.62916927398599
H           3.26135592816897    1.47526108923581    0.38547907537469
