    26
        -50.45731614  Gyration_radius:  2.44440514219 Dipole_moment: 6.856
 S          -0.57122636101712    1.20573172548707    1.49189607318801
O          -0.02177533328237    1.28734956294720    0.11407363662228
O          -1.14501534138829   -0.10486498953722    1.74200953123048
O           0.45659033756934    1.56783091947660    2.44257981989136
O          -1.71528679499549    2.26302552562616    1.54749930540828
O          -1.75355507574181   -1.10048158807502   -1.97440215828288
H          -2.13984918707289   -1.42430009765911   -2.78880255353480
O           2.26019428252247   -1.47316630472690   -0.19165755660058
H           2.74577635148167   -2.27091653360124    0.02223575938760
O          -3.03006094314645    0.54820696243417   -0.02581257131847
H          -2.62662444169713    0.03106777394947    0.68883089320848
H          -2.36590125545193    1.90968064706487    0.90706964433633
H          -2.69322799224473    0.13478431544949   -0.83595801822538
O          -0.22896518301576   -2.03440208616224    0.20354494347093
H          -0.55903290920335   -1.39527299974143    0.87178382272311
H          -0.80954430443685   -1.90179327857061   -0.56274333610397
H           1.29062871032192   -1.70139457523559   -0.03410569680652
O           0.62671619182242    0.07637900160982   -2.18948840881957
H          -0.91420152065887   -0.64274377045895   -2.21435162061887
H           0.33532900887538    0.63040380672378   -1.44155672006482
H           1.28800115910858   -0.52199099378190   -1.82404186024867
N           2.37962701436321    0.98537751934774    0.81393337716129
H           2.53183067230054   -0.02146796064690    0.55594853878457
H           1.47340394765402    1.26466136059867    0.29182362535993
H           2.00798561514319    1.11268796864642    1.78035428106253
H           3.17818333219284    1.57560809883930    0.60933723878738
