    26
        -50.45731614  Gyration_radius:  2.44432486596 Dipole_moment: 6.852
 S          -0.30397499663228    1.38851724821808    1.40727807623718
O           0.11302413369125    1.28695520135301   -0.01470096309628
O          -0.97548701512524    0.17438248055061    1.83678268247245
O           0.84243810007405    1.72341964730285    2.22311977148889
O          -1.32806281605221    2.56255116535152    1.45860399848083
O          -2.03674656005819   -1.08395951794128   -1.69437747790068
H          -2.52944823508843   -1.43790300321842   -2.43549101605034
O           2.07827685813538   -1.71496006712805   -0.23616915546933
H           2.50309679895341   -2.53555624113802    0.01689555057987
O          -2.95028082124741    0.86173169201792    0.18420683592241
H          -2.52971558394169    0.37182152990454    0.90821432836179
H          -2.06960521225652    2.22552268125424    0.91583331927855
H          -2.73714236128626    0.34332193964052   -0.60718947736723
O          -0.40470351553513   -1.97275903773725    0.42467751244456
H          -0.60522257169319   -1.24474597231187    1.05212754387590
H          -1.04132492288575   -1.84933499494037   -0.29733243789052
H           1.11071653933882   -1.82432484641741    0.02581491794197
O           0.41590216701643   -0.19163903696157   -2.23157735654111
H          -1.18408455265065   -0.74149613728071   -2.05091703533516
H           0.25293638278592    0.45546598652969   -1.52026557356011
H           1.04815030457750   -0.82103069354072   -1.86689058057322
N           2.53167603353895    0.80034542071437    0.49781679476634
H           2.55983124304474   -0.23649207633654    0.33152491376657
H           1.61213909982721    1.12477262616541    0.02943323188402
H           2.26647294832636    1.05446796558388    1.47481442847779
H           3.36113854514630    1.28092602036441    0.16776717780411
