    26
        -50.45601886  Gyration_radius:  2.44979994535 Dipole_moment: 7.018
 S          -0.50158959841374    1.23836067668010    1.51331715566154
O           0.02824861285667    1.41469819733989    0.13802286721340
O          -1.09491182714143   -0.07560404314523    1.68090201879469
O           0.54562351727351    1.51299197302497    2.47405686466413
O          -1.62574450707948    2.31032567394039    1.66663541915348
O          -1.78810183324694   -1.24741684999324   -1.81906021256331
H          -2.41454041573913   -1.88646496703847   -2.16016801855221
O           2.21342709336257   -1.34653134611148   -0.49315344087430
H           2.79782174702763   -1.90878833060087   -1.00343136947301
O          -2.94943739628008    0.70784503132459   -0.05353146596522
H          -2.52303627075165    0.16939120399418    0.63274587894699
H          -2.28327126653961    2.03508103842355    1.00057690778182
H          -2.64006729596448    0.31812180902117   -0.88441451591179
O          -0.43891739718099   -2.21845514779735    0.25298161148551
H          -0.70152175468143   -1.52185138785686    0.88773863949552
H          -1.35011132204645   -1.67632438337168   -1.04034465385050
H           0.51199282035142   -2.10379740118020    0.12777739844287
O           0.62788367925732   -0.00543118063322   -2.05783354686460
H          -0.18265874820591   -0.49849762689275   -2.26754258499975
H           0.33061643549945    0.63605360130080   -1.38585791850469
H           1.62349618253989   -0.87423131398098   -1.15787339698906
N           2.42836168509307    1.00204499956237    0.79108434733663
H           2.58251353710360    0.02007393356389    0.47561006249617
H           1.52863067105204    1.32735258051903    0.28264726702168
H           2.04177014164954    1.07212253556953    1.76195016288114
H           3.23352350020432    1.59893072433880    0.63716453317223
