    26
        -50.45444100  Gyration_radius:  2.55376887643 Dipole_moment: 4.690
 S           0.43149213877472    0.54294025814478   -1.23661781445357
O           0.69416301494412    1.53818062048835   -2.37403616434484
O           1.63351749704087    0.35784580564397   -0.47501701982207
O          -0.63167985458816    1.25320486372472   -0.40491615591656
O          -0.12493314958848   -0.67793572468579   -1.77592224263219
O          -0.35697417900074    1.58194466737463    3.09145572023021
H          -0.31344129442456    2.44161993920606    2.66982858425859
O           0.26415115025184   -2.12520904333287    1.76881630434918
H          -0.01492553329821   -2.97002266445637    2.12477636961943
O          -1.51061168256311   -0.11469035775874    1.45464052073043
H          -1.05188507627862    0.62962760925965    0.37615764404529
H          -0.92497257619174   -0.89767092843280    1.55508243090164
H          -1.24911891092325    0.50064603978337    2.19157186522536
O           1.46298966978685   -2.43852352719183   -0.55099795874962
H           0.81780338004868   -1.97451980955279   -1.11779978069860
H           2.19736039948633   -1.81996263611950   -0.47824161197029
H           0.71187880598517   -2.31681997780078    0.90251626970232
O           1.76174244510821    0.21041211432088    2.25530017390080
H           1.40712415074045   -0.68748223925915    2.31906655461153
H           1.85425658385054    0.37941185961718    1.30294029900828
H           0.51464692916863    1.14901533397749    2.92124162113080
N          -1.62387085394665    1.10549893232422   -3.37979096254478
H          -0.18192707749922    1.52447076367382   -2.90206983677982
H          -1.87649467514740    1.05878133486882   -4.35810769575374
H          -1.53451804056546    0.16406625597731   -3.00725420051840
H          -2.35577325115037    1.58517050020701   -2.87262291352490
