    26
        -50.45444089  Gyration_radius:  2.55400921995 Dipole_moment: 4.696
 S          -0.52313915563422    0.53714139917479    1.20288016954685
O          -1.39540228256578   -0.55422389551817    0.87532002685333
O          -0.68383871625659    0.89357316679549    2.68619514546081
O           0.93758262171711    0.10694295012621    1.11505025457698
O          -0.71945306491228    1.71915234329537    0.39344578525777
O          -0.56493960664677   -0.64151919019858   -2.64350603702315
H          -0.56801408836973   -0.44274175816949   -3.58093961251726
O           1.91264100719464   -2.88313709245833   -0.47163138242665
H           2.10291186015708   -2.92475880730162    0.46686387238637
O          -2.43345100001503    0.72272662285990   -1.39280993969762
H          -1.86252601772292    1.28385096197135   -0.83422152030483
H          -1.29376097169794   -0.10167863808507   -2.23719055419339
H          -2.78245844126858    0.06442355879213   -0.78281860842574
O          -0.72790199657300   -2.68340023110566   -0.70999393283620
H          -1.02933184383929   -2.05384032210063   -0.03404615403124
H          -0.77742874908780   -2.19915835906104   -1.54608388318631
H           0.93419752083837   -2.98979024823662   -0.55765109468998
O           1.69311337588773   -0.36770296423038   -1.18842749486019
H           1.27819380698464   -0.04827928477832    0.09767124871861
H           1.95121267070998   -1.31676936393252   -1.03796727579204
H           0.89746755742876   -0.40702783105263   -1.76417702958022
N           0.80851934763927    2.96123399376809    2.42307821590916
H           0.45600685657628    3.00991652913936    1.47099714972197
H          -0.10276307754509    1.72932803688417    2.78910550840297
H           1.79096459527368    2.72296291157976    2.39183554223789
H           0.70159778174204    3.86277551184151    2.86902161048461
