    26
        -50.45444101  Gyration_radius:  2.55372646759 Dipole_moment: 4.693
 S          -0.83448998175191    0.07105163692838    1.14422196878787
O          -1.26807415113282    1.15044910312350    0.30392403976887
O           0.41309844079428    0.31702562957215    1.83257122153856
O          -1.93226308526835   -0.25634454999605    2.16442569112789
O          -0.71888191740322   -1.22322516146818    0.34534455524228
O           1.80198656719643    1.39027419105808   -1.59334237419946
H           2.69235472922751    1.63444106487834   -1.85013445359539
O          -0.72575462628858   -1.25307759643276   -3.17599446185744
H          -1.50378156249976   -1.69712583641984   -2.83508161859282
O          -0.89356776387191    1.28577160241005   -2.40427981979380
H          -0.88155878515800   -0.28662815848255   -3.04248080055151
H          -1.19756214758765    1.28472943232390   -1.48140683374708
H           0.04823017978078    1.50256270679679   -2.35970257219602
O           1.11702688917003   -1.20598482275560   -1.30746880256963
H           0.12070409306028   -1.23009812907807   -0.34009999100665
H           0.55431508221313   -1.35504018368763   -2.11437355953436
H           1.44070932802876   -0.28145871966134   -1.38827748594037
O           1.10746355202418    2.59946457135405    0.63663927761665
H           1.02328224994285    1.81626675306571    1.21313048993576
H           1.60378597427755    1.88428625934172   -0.75412456708382
H           0.19688949301883    2.85028608246275    0.44904851219900
N          -0.39497171749738   -1.89822192100819    3.39431852401568
H          -1.49147060267757   -0.95925817983104    2.76296006586554
H          -0.31560072631534   -2.78273666019197    2.91028364731986
H           0.36963149302025   -1.29709692041629    3.09918220372510
H          -0.33150099432151   -2.06031221386177    4.39071715353571
