    26
        -50.45444096  Gyration_radius:  2.55393567177 Dipole_moment: 4.692
 S          -1.27658764224050    0.48628289434341   -0.37941640427370
O          -2.79397604120280    0.70758802156567   -0.42005294174576
O          -1.06614464193650   -0.16185653551098    0.98519049062092
O          -0.89493858347934   -0.41037338702704   -1.43275809407119
O          -0.59686301670106    1.76222276954226   -0.40888325268646
O           0.85412631248404   -3.08778709231202    1.38843968708623
H          -0.06366505150897   -3.25756116737305    1.60645657231686
O           2.65674547640995   -0.26306305466068   -0.76793408843359
H           3.56913347923726    0.02982257569424   -0.77548692315680
O           1.17801071434784    1.24640263530405   -2.33360173626780
H           0.60081924789394    1.64696900485119   -1.65589992848425
H           2.16008992349788    0.34168683060630   -1.38057169279568
H           0.61569697327936    0.59302232173910   -2.76272600993072
O           1.31111727147279   -0.50881285118375    1.56013284852270
H           1.26769679451765   -1.49747308211683    1.66328898235314
H           1.84243594916118   -0.35938270590657    0.74683619335005
H          -0.02103310858375   -0.26279458870575    1.25498127942082
O           0.92284628509837   -2.44254559789203   -1.18997499174546
H           0.17359632541629   -1.84656868974427   -1.35605116174072
H           1.70432712652511   -1.87221429338426   -1.19182448094088
H           0.89472181840717   -3.02621486260656    0.40320386023607
N          -2.64731671369226    2.52253576344491    1.38451661080515
H          -3.18333217585198    3.37796036601960    1.44799675005061
H          -1.72593975315634    2.72696575677597    1.00726070847175
H          -2.53753841240680    2.13228933541205    2.31112032800976
H          -2.94402857698636    1.42289961311924    0.29575739503285
