    26
        -50.45444091  Gyration_radius:  2.5540757001 Dipole_moment: 4.695
 S          -0.19830998323582    1.19999163897171   -0.72793379279414
O          -0.10080642814290    2.26617035639394   -1.82648400590188
O           1.00187890316224    0.30463143391167   -1.01867043122112
O          -0.02659109629158    1.81814594349402    0.56792982078881
O          -1.42506402696446    0.47035394605990   -0.87614282763777
O           0.71712886895496   -3.20245267668530   -1.19261135582428
H           0.95558989881370   -2.84313388037585   -2.04861541179934
O          -0.96900395908332   -1.60883466504272    2.04742077537661
H          -0.97762339226208   -1.90725285916294    2.95801417680441
O          -2.12200553117120    0.74441700997080    1.82420866122129
H          -1.34551678488357    1.26758432560216    1.54818557612848
H          -2.63158519495782    0.63760155508977    1.01416708965952
H          -1.42258302448487   -0.72466326204673    2.03478781892337
O           1.34920322153938   -1.46454053061111    0.67013514468315
H           0.54772594793808   -1.50042571575017    1.23790465711582
H           1.26415843028462   -2.23989262468768    0.05243713586088
H           1.18106467258584   -0.43552303029390   -0.24737185535503
O          -1.68998132488737   -2.24028892885996   -0.60143343066430
H          -1.63175803447367   -2.24447191919524    0.36427061786379
H          -1.69180333962036   -1.30130423719512   -0.85129551636463
H          -0.23883047278226   -2.98931445586505   -1.06286038361289
N           2.00300289998415    3.27152973615758   -0.76117697440279
H           0.74585021171725    2.78261132222526   -1.57522808038250
H           1.61495315040994    2.96799620211150    0.12786170761371
H           2.83021500118894    2.72327302374429   -0.95638044414239
H           2.26069138672638    4.24779228210569   -0.70111867194517
