    26
        -50.45289442  Gyration_radius:  2.64833553614 Dipole_moment: 2.980
 S           0.07527881536560   -0.71769957565446    0.37878757590896
O          -0.50360473495472   -0.33403634451631   -0.97896108286862
O          -0.01230599097138    0.57678636792048    1.21045304773420
O          -0.77226093153014   -1.71109467740344    0.99233535834510
O           1.44965970026606   -1.08163937384896    0.20736042997803
O           2.94594881536261    2.67469943211479   -0.16804873241695
H           2.34975351049383    3.42301529411026   -0.22198866758231
H           2.67945428428909    2.04262866816268   -0.89012498264572
O          -2.69191148944453    0.01007517910674    1.81514265622387
H          -2.07552914514115   -0.74010904886076    1.75953990391024
H          -2.15167129664825    0.76660357144144    2.05720688599479
O          -2.68740874530847   -2.91040648392771   -0.51257077665186
H          -2.00508624766984   -2.64978677148026    0.13205810471402
H          -2.29344856785625   -3.57756337614071   -1.07611188025455
O           2.38077539184511    0.98629119810677    1.76439099883670
H           2.66531815123261    0.14429755163624    1.38655152596344
H           2.68785800812342    1.68896779828026    1.12863967548394
H           0.95733055331381    0.82264179352521    1.50820555198888
O          -2.97695495710096   -0.26387930771933   -0.80811955813303
H          -3.09740788750176   -0.04025495029120    0.14605299309864
H          -1.57331389717930   -0.25591184259664   -0.94773285682241
H          -3.14972292437090   -1.22715551585514   -0.86204754142699
N           2.05717221752423    0.82272685647120   -1.88015143487998
H           1.13732624154182    0.99520757307505   -2.26865298145616
H           1.94811610530814    0.04125611515684   -1.23613822088776
H           2.65663504101758    0.51433986916641   -2.63607600213479
