    26
        -50.45444090  Gyration_radius:  2.55416164263 Dipole_moment: 4.694
 S          -1.23877198200085   -0.00202945548223   -0.68855801487985
O          -1.69216288497667    0.74097712169857    0.46608269912287
O          -2.27647415623937    0.10591120380923   -1.81310591396754
O          -0.02010000259544    0.69445421939388   -1.28540853472448
O          -0.95740750504241   -1.38472762692300   -0.42757818246419
O           3.18746887710671   -0.76203409399132   -1.20569575282978
H           2.87690621893896   -0.68661105637265   -2.10933040402007
O           1.32111370396300   -0.78360417493071    2.31509034524398
H           1.65232812009694   -0.61663154183346    3.19866745686179
O           1.86021252369657    0.93004592226871    0.29917887978670
H           1.66583676070197    0.36939073767540    1.08272345337684
H           2.52856478888336    0.41533229769506   -0.22842128651397
H           0.78145588896350    0.84270843076177   -0.57087637455837
O           1.53003244715442   -2.42822840128866    0.03766997592488
H           1.60851806695040   -2.08878930404802    0.94023143049331
H           0.62895718693410   -2.19685966060569   -0.24274472737385
H           2.68269814222355   -1.51048374917979   -0.80424038255785
O          -1.28798001201386   -1.11348895061820    2.34198572215523
H           0.33828590008295   -0.90454177626680    2.39919396329893
H          -1.54504649658575   -0.32870454027495    1.82153097811229
H          -1.39960581891078   -1.84734596323654    1.72861478386134
N          -2.48066065879632    2.63898310889610   -1.47652039192661
H          -2.26917241448697    2.45713009575955   -0.49913860633060
H          -2.47431904988279    1.10890785290444   -1.85187107524309
H          -3.31508081738048    3.20697629864193   -1.54123264884096
H          -1.70559683681289    3.14326302549758   -1.88624737198619
