    26
        -50.45444084  Gyration_radius:  2.55421393028 Dipole_moment: 4.694
 S          -0.54717581487338    0.26233848692074    1.28081112079773
O          -1.14085618139679   -0.82475792055299    0.39079112837274
O          -1.52364287724990    0.30450610205186    2.46307667009709
O           0.75707207004723   -0.16009862535234    1.74063699496312
O          -0.55392227637252    1.53006709658967    0.60858612974746
O           1.99975056894705    0.67792706509404   -1.80551570238402
H           2.85963269576590    0.54389244468162   -2.20667874279110
O          -1.64009136296007   -0.34460792206142   -3.06429136401246
H          -2.48117984072555   -0.44899417299051   -2.61663147795407
O           2.24089640893949    1.73602261104579    0.59006866993077
H           2.16366028821840    1.08319923867073   -0.91298429398292
H           1.52737008542395    2.38265076422184    0.59201858778571
H           1.88978607866755    0.99450892903977    1.11897539975810
O          -0.53224134088730    1.87464024088427   -2.10681816342418
H          -1.32115081369603    0.56313699124417   -2.83975487683114
H          -0.67472215661869    1.87397506668522   -1.14567527958434
H           0.40171887184875    1.65091957151739   -2.22370142155963
O           0.25794670330119   -1.37181979702838   -1.57034603306328
H           0.95126481165295   -0.67947036607320   -1.64826140062432
H          -0.49812613197093   -1.09818590121796   -0.43830924620091
H          -0.41515753834493   -1.14401482523443   -2.26676885602705
N          -0.74425114896816   -1.99700794127879    3.27999160796377
H          -1.37151830851982   -0.59654856613940    2.92302834278337
H          -0.62511376451517   -2.30679841699766    4.23543505271269
H          -1.14090267216460   -2.75142528378647    2.73553246785260
H           0.16095365648662   -1.75405486992418    2.88678465567106
