    26
        -50.45444103  Gyration_radius:  2.55370752603 Dipole_moment: 4.689
 S           0.06352830787304    1.07698959575506    0.92025334121252
O          -0.82882425141072    0.24611116093141    1.69765632314757
O           1.40809390614280    0.58257876590950    0.83707024756932
O          -0.52567532102172    1.27841606581619   -0.47217451242001
O           0.07574596292084    2.49993260835262    1.49322982336832
O           0.97436974297133   -0.08930969679755   -3.35072826973458
H           1.00662284255323    0.86823362789321   -3.37881798185622
O           0.51247743481239   -2.70351740730988   -0.37888236974357
H           0.24221632065879   -3.62280169124001   -0.39203570649096
O           0.78285168339387   -1.84408658422758    2.09206477054721
H           1.58573209089621   -1.31608943264864    2.03030696198893
H           0.06474242536564   -1.18299782284079    2.10102783567494
H           0.60165542248486   -2.44815213215520    0.57737213606267
O           2.43532613264794   -0.84385666308673   -1.26135367660328
H           1.98640201201519   -1.67243771004554   -1.04239390983737
H           1.65550675435000   -0.36699672410533   -2.69111633453212
H           2.22277141308794   -0.23958523217616   -0.53074217991603
O          -0.92143105752441   -0.83149678820531   -1.69422869624769
H          -0.46830740371051   -1.55283671038917   -1.20385460515196
H          -0.74692911475354    0.34783777857563   -0.98252026990398
H          -0.33033160531448   -0.63455325173056   -2.47003293751376
N          -2.48378014388126    2.53871875916687    1.63231604318500
H          -2.91233041223670    2.69980129559853    0.73048242385522
H          -2.42225177839704    1.53619157327258    1.78781651595785
H          -0.91846013726189    2.71685222917121    1.59840102763076
H          -3.05972123669814    2.95705438652568    2.35088400976245
