    26
        -50.45444090  Gyration_radius:  2.55416118797 Dipole_moment: 4.692
 S           1.41586888192869    0.02653878859787    0.05961899327755
O           2.86425673462873    0.52665729418001   -0.01223690867889
O           0.61270351456143    1.32241804024534    0.10309339493389
O           1.10860108008522   -0.72288290464148   -1.12489252873531
O           1.21173440206077   -0.70025107039637    1.29289829374757
O          -2.15262774130751    1.87662963052730   -2.01019800287642
H          -1.44457835613196    2.48771672342399   -2.21978253902011
O          -2.24472441014702   -1.63202707892396   -0.12375428569885
H          -2.97286968449261   -2.10272533330222    0.28433963063578
O           0.03071286693432   -2.87929877012845    0.30412533127760
H           0.47190504006787   -2.20453726935205    0.85449581967951
H          -1.42378249215621   -2.15769992850916    0.06977824838789
H           0.46239729316649   -2.80030075157830   -0.55298601586531
O          -1.81070737618831    0.97453647755261    0.43079731636988
H          -0.44194427516873    1.16663355601507    0.30025198460896
H          -2.11105689061582    1.41154875404868   -0.41111069814787
H          -1.99754936887921    0.01796931887339    0.30352507528987
O          -1.23640405472367   -0.56500411453464   -2.52780574940201
H          -1.76176536737810   -1.07145401081113   -1.89259466393335
H          -1.87324912795121    0.99992529259206   -2.37003853853194
H          -0.32529563864866   -0.60538709971414   -2.19263724298081
N           2.75770430032526    1.39430548670871    2.39764065656926
H           3.48938231848725    1.37504659259484    3.09571491094450
H           2.25844623924146    2.27111118694181    2.46696777647565
H           3.00801670793482    0.95596287805072    0.90513708882923
H           2.10482540442150    0.63456830160506    2.56965264280293
