    26
        -50.45444097  Gyration_radius:  2.55392062869 Dipole_moment: 4.693
 S           0.03137473844290    1.38826043062580   -0.28485737787459
O          -0.30000090423937    0.37788897032147   -1.37837400849628
O          -0.20278260768285    2.73381413457502   -0.98325822047991
O          -0.87511036431614    1.25785380497084    0.81989165724984
O           1.42674713552578    1.26072626355091    0.07237331515864
O           0.39123822233104   -1.93261016510825    1.95730735657184
H           0.92890204341069   -2.58691432244365    2.40574657775073
O          -2.44683816485612   -2.35560489869918   -0.80809005848130
H          -2.83486202117644   -1.75152429316147   -1.44310324761662
O          -2.23268488459993   -1.02441808518037    1.48344985957145
H          -2.53558791322153   -1.91972817491404    0.07410548743054
H          -1.46999945423352   -1.48183250013835    1.86430387939775
H          -1.91188683995464   -0.13308059150222    1.26731911613749
O           1.14004526935685    0.50132556961667    2.61445272637309
H           0.72108955874324   -1.04334503466409    2.25413762258154
H           1.46133205357121    0.80124239036096    1.74285297975437
H           0.29255975936021    0.94686627487565    2.71690819927964
O           0.14734011623469   -1.96376680307431   -0.73157290868240
H          -0.78216003847930   -2.30016596083472   -0.84494433559861
H          -0.05176847024225   -0.64245114417480   -1.10872813267119
H           0.30993258366831   -1.98254707744454    0.23761893665570
N           1.84370596461284    2.38773988754103   -2.48782311031545
H           2.24092440605618    1.86577940983086   -1.71139065746444
H           2.50725257425245    3.08387861500079   -2.80111723968813
H           1.65643226979331    1.74550514993679   -3.24637349052223
H           0.54480496763890    2.76710813014050   -1.68083491603249
