    26
        -50.45444103  Gyration_radius:  2.55385873536 Dipole_moment: 4.689
 S           0.46824691638983   -1.05132173022625   -0.82794779207601
O          -0.85967183970261   -1.44158316494739   -0.44918352564376
O           1.26989729391592   -0.60729338835275    0.39134954670894
O           1.24419198230661   -2.28168918068431   -1.31507953649673
O           0.51921959367483   -0.01330723879542   -1.83336334283595
O          -2.00144213782731    1.89112510310343    0.36538901806440
H          -2.35748387180402    2.77582526005898    0.27135773651362
O          -0.27076431057089    0.10534363319292    3.47892576735684
H           0.29902766806919   -0.66130790841253    3.55831023073668
O           0.46845840490967    1.50672486713971    1.38642708660557
H          -0.40404738948374    1.71644637060270    0.98533687367059
H           0.25825767566962    1.14394938207230    2.28878414756992
H           0.94778950286072    0.34748428656232    0.79147421174488
O          -2.07480542458501    0.60579243008129   -1.92793960269040
H          -1.11506208140796    0.50858578350306   -2.07727964319234
H          -2.35849175169856   -0.27223142130216   -1.65255991420967
H          -2.06554759463286    1.46343525377061   -0.52939232758771
O          -2.19633168512983   -0.54553369270032    1.76508502718020
H          -1.07256313218265   -0.19895446993560    2.98833372889283
H          -2.39626138271822    0.33098547500682    1.40767721863350
H          -1.77638353003249   -1.02790566710964    1.03361015945979
N           3.21891330584073   -0.82620318027255   -2.05930460598513
H           2.52858286694959   -0.10278170288753   -2.24143152489836
H           3.79357507740380   -0.53501578010335   -1.27962823390420
H           2.12748536420984   -1.88426502910807   -1.64424546192742
H           3.80521044958158   -0.94630430025195   -2.87470523170640
