    26
        -50.45444078  Gyration_radius:  2.55435255817 Dipole_moment: 4.694
 S          -0.93797288731159   -0.42726185325483   -0.97221236559532
O          -1.72552124513153    0.18382913458523    0.05997850812991
O           0.23101076326094    0.47082814749616   -1.36371883581719
O          -0.43596444396501   -1.74143636653755   -0.63785430893165
O          -1.75832393129339   -0.50085570945179   -2.26633315172044
O           1.22194475037340    3.21399091673635    0.61412044696489
H           0.88943777110928    3.51566161836832   -0.23271209390193
O           0.75204056513958   -0.16750649368357    2.66940890218932
H           1.27315724240795   -0.54393898096958    3.38007722267064
O           1.94046870762589    0.69819948462294    0.40482926859673
H           1.87635616863274    1.68562588177821    0.50927641452733
H           1.56603838570649    0.32814388220858    1.23488895976233
H           1.00343477000369    0.52426816618708   -0.60485644532135
O          -1.15387583513941   -1.82249423845761    1.93103126482233
H           0.05203414326499   -0.83678424712529    2.44635585236434
H          -1.89715686041666   -1.22311229125855    1.80651804760354
H          -0.84740638325448   -2.01127751813322    1.02368326797066
O          -0.80912236318537    2.03259043949755    1.85843245707795
H           0.42989786198400    2.94105354435679    1.13785232150280
H          -1.27300108357822    1.49146471722331    1.19804761607620
H          -0.31839768857610    1.40093046167294    2.40265081524493
N           0.05307912204236   -1.90203941946762   -3.41848011176303
H          -0.07574823483336   -2.66825832762456   -4.06606394305594
H           0.83608104813076   -1.33967373274447   -3.72430613679073
H          -1.15196320335963   -1.03150090837101   -2.89663980974171
H           0.25947287036948   -2.27044626769175   -2.49397416287258
