    26
        -50.45444093  Gyration_radius:  2.55391494375 Dipole_moment: 4.694
 S           1.26012536132138    0.44783811862227   -0.46986503899500
O           2.42671636378757    0.77987925851724   -1.40899907643002
O           0.09124454458790    0.26838006339107   -1.43322616833132
O           1.53865584252233   -0.77600638731229    0.22573593770071
O           0.99391375395871    1.57606936193215    0.39456595799762
O          -1.46220124300163   -0.73977892669948    2.24294909527558
H          -2.07313583310632   -0.54865587412266    2.95605718150549
O          -2.05063284870531   -2.52373475411105   -1.27128769770413
H          -1.55611340935419   -2.52829584514933   -2.09234558846451
O           0.90388628418705    0.29765225603233    2.73533801555783
H           1.49207330347215   -0.40685237991937    2.44391199417051
H           0.93676919373415    0.94923214490265    2.00923825092195
H          -0.59379447145817   -0.32804050439803    2.49579199068751
O          -2.07696070961725   -0.08423155505860   -0.30329124691587
H          -2.27530331292989   -0.97594086412486   -0.69770264411788
H          -1.89621519944174   -0.25898869041581    0.64688316042154
H          -0.86492768109601    0.16760080673785   -0.93236655506534
O          -0.27616857079924   -2.77120644238313    0.69320193633565
H          -0.74991491568468   -2.30599190634047    1.39688533546137
H          -1.41326343159052   -2.79350693177642   -0.56620926096448
H           0.47660179514874   -2.19783721982769    0.47253139707052
N           1.41309760335877    3.06615748934136   -1.97242457904383
H           1.02802124742589    3.05087040007617   -1.03194339769983
H           1.90041806378892    3.93955991449503   -2.12349745483918
H           2.17536536345822    1.70133467769855   -1.77555148167333
H           0.65174290605527    2.99449380986313   -2.63438004285935
