    26
        -50.45289445  Gyration_radius:  2.64833057501 Dipole_moment: 2.979
 S          -0.63323322134054    0.51150465510447   -0.02450778082402
O          -0.75743744229536   -0.88770834732673   -0.65833220061935
O          -0.29680947312240    1.46552901363398   -1.03816506867358
O          -1.83642873580843    0.78010402045719    0.72502943562512
O           0.54110334706845    0.38601692828251    0.94025447997160
O          -2.23538504056168   -1.76316766018577    1.55918018550967
H          -2.37541026615565   -0.84903877057748    1.25825626746156
H          -1.94635945052034   -2.24635801822490    0.78084522973756
O           2.15625603843143   -0.92630051319823   -3.21829141549065
H           2.40405813782298   -0.27306858867519   -2.50851821279958
H           2.39232419433036   -1.79475476265935   -2.88905445456732
O          -1.62474063562813    1.45983613689893    3.34484002123316
H          -1.86952306973144    1.32222105670784    2.41201444680940
H          -1.35472600242474    2.37543086366279    3.42648913164513
O          -0.41034296576169   -0.38313650253281   -3.07200647014445
H          -0.40695129680141    0.57129498198975   -2.92457028768277
H           0.53418929664723   -0.63320756523136   -3.26586834939983
H          -0.64181109324034   -0.77449275406840   -1.68939622175866
O          -0.22027105256352   -0.79244542247550    2.98540418907728
H           0.27007271715069   -0.14989334666338    1.82962325001497
H          -0.66792773544620   -0.03897091507242    3.42425116600206
H          -0.95461895497514   -1.34615712428236    2.62606161438640
N           2.51221168592250    0.80903375672538   -1.21506680618834
H           2.67960404801762    0.39520779913463   -0.30539135538688
H           1.57615736414300    1.20832875433561   -1.17412304084195
H           3.16599961683574    1.57419231424306   -1.32895776310395
