    26
        -50.45601908  Gyration_radius:  2.44966906562 Dipole_moment: 7.018
 S          -0.55824479116055    1.31691717430893    1.42482903200184
O           0.02784079875262    1.41636615051038    0.06440315947344
O          -1.16402352733215    0.01552855681981    1.63934053142904
O           0.45060974773432    1.64128041748461    2.41042773461260
O          -1.68256225419409    2.39849903440159    1.47293055170229
O          -1.71813862493378   -1.33699371963314   -1.82061997970413
H          -2.33252465830074   -1.99241299463114   -2.15262014812251
O           2.22715764490269   -1.37504884743248   -0.33154019259151
H           2.82882932643559   -1.96582425562285   -0.78647940258624
O          -2.94270126547197    0.70944018344037   -0.20925051396460
H          -2.54822805335682    0.20662105129610    0.52167600202145
H          -2.31369233493554    2.08841586051444    0.79646316802222
H          -2.60009519705552    0.27606948084034   -1.00482422862470
O          -0.45731238342720   -2.19892599991633    0.35250345094656
H          -0.74283687019240   -1.46949714742415    0.93876475609121
H          -1.31345438471614   -1.72471004109257   -1.00314721181634
H           0.49826960655785   -2.09247773085155    0.26003967028633
O           0.71149793918968   -0.11673420826634   -2.02883655714622
H          -0.09212340303707   -0.61851600350609   -2.24461039636867
H           0.39004702973285    0.55977720554495   -1.40404205692270
H           1.66678148409063   -0.93801919113979   -1.04417743618859
N           2.39831233298130    1.03819040585233    0.83387734343072
H           2.56210305445423    0.04074287351051    0.57714250277669
H           1.51795178664223    1.33552711218884    0.27539824081486
H           1.97678442277882    1.15987269019443    1.78437057606146
H           3.20975257386400    1.62591193261108    0.67798141436671
