    26
        -50.45731620  Gyration_radius:  2.44449061743 Dipole_moment: 6.857
 S           0.79758390987997    0.85662546743889    1.62419539313662
O           2.00237844485027    1.62671809495831    1.40780792542678
O           0.72216469321815    0.43478833720278    3.12288149984996
O          -0.41383959940393    1.58536716352482    1.29096354644520
O           0.87757944997674   -0.41336287354758    0.85745874109977
O          -2.46975925361155   -1.44393938702497   -0.04143174778241
H          -3.16609514521720   -2.07706264045481   -0.21913957542092
O           0.53635287067391    0.51431997597079   -2.59977893624323
H           0.39630588607213    1.05108740468609   -3.38091690985198
O          -1.74928495422734   -0.37575643292980    2.50552486592136
H          -0.13339734730199   -0.03844002581912    3.17072716170195
H          -1.62723080106242    0.50240881481830    2.11200544091897
H          -2.00255669303788   -0.93749540962353    1.75666989632917
O          -0.08012697182238   -2.00607707251479   -1.07637826706020
H           0.28201900885719   -1.55694527626021   -0.29000627800772
H          -1.64077687306104   -1.80896345053916   -0.43030587812478
H           0.07460961329673   -1.40243284555313   -1.81162519981110
O          -1.46984058126307    0.99142243275616   -1.04600208212344
H          -1.98383613637002    0.21129193028956   -0.78320198720561
H          -1.09762699306297    1.33210522433425   -0.20372384904936
H          -0.25070564156293    0.70747323225102   -1.99952981132619
N           2.52697000265406    0.45479429405800   -0.83774793018610
H           3.42458526126736    0.06609986892021   -1.10450633505390
H           1.89149855059942    0.62876659975954   -1.65585380134002
H           1.94802544363852   -0.17475441568673   -0.17402632360177
H           2.60500384602003    1.27196099898516   -0.19405958864133
