    26
        -50.45289446  Gyration_radius:  2.64819629581 Dipole_moment: 2.981
 S           0.73385024452102   -0.33458666967320   -0.12163056243347
O           0.96981484233678   -0.20055235822606   -1.52775464180814
O          -0.64895190583730   -0.94278768941275    0.08769331796054
O           1.70699791041536   -1.10448825802517    0.61445364473285
O           0.63645852159257    1.06425972531598    0.51748179964332
O           0.97269122666195   -3.50873569531783    1.63994551265013
H           0.95618886475961   -4.17083961005818    0.94769262605787
H           1.41879520927660   -2.72638274024511    1.26860412081225
O           1.13863900446775   -0.05097281997505    3.04159753146611
H           1.60380159587250   -0.43615735775957    2.27934707015209
H           0.95551820657624    0.85926226586270    2.79507225615561
O          -1.35714064977056    3.07022107317470   -2.13999992988322
H          -1.90796099428727    3.40241609533366   -1.42966158286582
H          -1.59681436843119    2.11162982177542   -2.26491622418390
O           1.11631901536340    2.54438565837451   -1.42662483676636
H           1.33891924082123    1.80161089583716   -2.00231401833954
H           0.23019549256068    2.87599094228636   -1.73830067711556
H           0.84292994683429    1.76367888101700   -0.22928475966279
O          -0.84310795872167   -1.70855306814981    2.43886363704257
H          -0.22094880651990   -1.09162890961527    2.89410751003532
H          -0.79500613253653   -1.25853953057789    1.10258946278056
H          -0.34483319576352   -2.54842485653437    2.35549917730360
N          -1.74806881223806    0.42885928277449   -2.28245791206218
H          -0.78662015355168    0.11299707010524   -2.16738550078651
H          -2.10268042939280    0.02241863721588   -3.13976824422132
H          -2.26898591501492    0.02491921450398   -1.51284878667606
