    26
        -50.45601895  Gyration_radius:  2.44977620055 Dipole_moment: 7.017
 S          -0.41013201893508    1.38295891776968    1.41498068030024
O           0.03744319595336    1.41935884200397   -0.00031427502214
O          -0.99257299446211    0.09535568444305    1.74576084812490
O           0.69237991180451    1.74450880627469    2.27977812352003
O          -1.52319293620094    2.47127051866051    1.52679209231955
O          -1.89257698855335   -1.40602669010557   -1.57846058887384
H          -2.53579401083693   -2.07328469711210   -1.81996947518963
O           2.17822776584887   -1.40187891322700   -0.49483948373646
H           2.72804120332450   -2.01708455051147   -0.98177195793668
O          -2.94679107354156    0.71599890420842    0.05551178410304
H          -2.48084329476122    0.24391706442399    0.76447641504491
H          -2.21902659957585    2.13477058941273    0.93137884657455
H          -2.68744230967910    0.24560450219223   -0.75040728211066
O          -0.42243893838475   -2.17814386021640    0.49410529272333
H          -0.64650266419597   -1.42209824499780    1.07324230482652
H          -1.40906639304575   -1.75932084765170   -0.78857521918328
H           0.51881001743178   -2.08065941915170    0.30015812500948
O           0.50279060724027   -0.20657606015043   -2.08417503385401
H          -0.31924286675720   -0.71303394572715   -2.19426771182413
H           0.24764754857792    0.49882465029157   -1.46084850774858
H           1.55074884135413   -0.99099798552296   -1.16589411863584
N           2.47128070294977    1.05697516654970    0.54447058615207
H           2.60686694558947    0.04870313245771    0.31599132353616
H           1.53847832992281    1.33544908324522    0.06579313017890
H           2.14978019725817    1.22262725900306    1.52644976162482
H           3.26312784167197    1.63278208343897    0.28063434007724
