    26
        -50.45601890  Gyration_radius:  2.44968515118 Dipole_moment: 7.016
 S          -0.86599476959517    1.09435035869089    1.45744323303835
O          -0.09717550379288    1.39849246684266    0.22472553317095
O          -1.38906660327447   -0.25913417770996    1.42754991929348
O          -0.04229124122724    1.35720584172901    2.61830370287364
O          -2.06952188430522    2.08833237579811    1.45289800824353
O          -1.31767535455083   -1.21278377383857   -2.20283811736502
H          -1.81975655366254   -1.86099439886116   -2.69781565641471
O           2.35575774623464   -1.17910953268250   -0.13150064795537
H           3.06386233720034   -1.67012262540656   -0.55039635232856
O          -2.92792747818683    0.54298375565970   -0.58482984308342
H          -2.60491613030032   -0.01960893544936    0.13752347609889
H          -2.56811209832185    1.82531132069278    0.65664884273112
H          -2.43935568299403    0.23256622339984   -1.36124752290287
O          -0.32314979576742   -2.25213865860927    0.03041167042621
H          -0.75036216555072   -1.61917771990838    0.64205846673360
H          -1.00734797522638   -1.67089501997731   -1.38059014448343
H           0.62366551881190   -2.07409206054178    0.09997956205493
O           1.00757139038563    0.17721941114576   -1.89316795230090
H           0.28791764574382   -0.34475876455629   -2.28537938093163
H           0.54403529252750    0.75069417409180   -1.25463593467070
H           1.87196626710492   -0.69508877200524   -0.86948564447760
N           2.15759703986708    1.07992488109241    1.30687546294079
H           2.43745815133081    0.13354851858089    0.96974936380503
H           1.35055948891587    1.38845920367659    0.65323650811409
H           1.58882645740708    1.05735067764191    2.18610523368630
H           2.93343588122597    1.73146523050573    1.34837822370172
