    26
        -50.46489349  Gyration_radius:  2.55400224699 Dipole_moment: 4.639
 S           0.68128358754297    0.30723470108657    0.35168984159209
O           0.53576507975530   -0.07345931464900   -1.05352688957088
O           1.38283701398630    1.66303147115538    0.43569676629781
O          -0.65338945796087    0.44139893948846    0.97892117245248
O           1.46732438110253   -0.66192154214765    1.08827153268929
O           2.24116987786563   -2.97339910297556    0.08144873330158
H           2.05106670784995   -2.10207080289842    0.49803019865475
H           3.09212327079140   -2.87688827311066   -0.34789479823222
O          -1.82088344816394    2.81839226446946    1.34081250325652
H          -1.48178742408827    3.11671940043398    2.18643989241425
H          -1.49928833662363    1.90108825565396    1.22579866987596
O          -0.85932080458945    1.58702919352281   -2.55312960428761
H          -0.39640001304483    0.90101482170631   -2.02355535997906
H          -0.42437044919550    1.60198753132317   -3.40732443510838
O          -0.12819953256548    3.34337950206675   -0.67865082426637
H          -0.48296251860205    2.84653729113100   -1.44926758785878
H          -0.85724673206406    3.36551627425442   -0.02313268999668
H           0.80885626772929    2.38364135124032   -0.04006417860955
O          -0.14144196256195   -2.61520269731013   -1.06223155005213
H           0.73610072412924   -2.99557992071556   -0.84486036303657
H          -0.68474209143609   -2.42641418184665    0.31305383110764
H           0.05564512753615   -1.66976141921569   -1.25745579373611
N          -0.88903587336502   -2.08616018299343    1.34009815904770
H          -0.07313727670653   -2.30981596974470    1.90805575195901
H          -1.74141075939688   -2.47636014824283    1.72974018221590
H          -0.91855537793052   -1.00993745167728    1.26303684986629
