    26
        -50.44993682  Gyration_radius:  2.70545847533 Dipole_moment: 5.796
 S           1.60708922767880    0.52177080987284    1.11658664725172
O           1.76501976405253   -0.20550779089442   -0.12252356781404
O           2.96436132490753    1.06917453933992    1.56747063719670
O           0.82167597926903    1.81956046396494    0.80343058723386
O           0.98120155341418   -0.20097304581200    2.17678723529719
O          -1.34397463799015   -1.41267073650458    1.47234367257323
H          -0.60794738218747   -1.15526140421858    2.04826773668660
O          -2.10779203934691   -0.53659909358894   -1.92736297328473
H          -2.48440330795739   -0.65438586831403   -2.79984538247968
O          -3.73383431221852   -1.27676687011261    0.08338283919896
H          -3.04629338155120   -1.56433635270995    0.70538078095158
H          -4.13209699142790   -0.49637697208000    0.47545271712045
H          -2.76997158191113   -0.88739506402678   -1.28620710130250
O          -0.08612867590115   -2.09619261186097   -0.75247440829972
H          -0.66236169728075   -1.60391604425159   -1.35797981392489
H           0.68519832340399   -1.52592378947893   -0.59173511677783
H          -0.90212359916039   -1.85965065662590    0.70658333185928
O          -1.51954581599341    0.98452371200448    0.32415713595361
H          -0.15435295656191    1.57419864159201    0.61565221869999
H          -1.59814475714239    0.71320976842078   -0.60373904512393
H          -1.53144826294575    0.13767204658173    0.83905105429503
N           3.63771341041943    1.79458794735960   -0.79567865914812
H           4.55905691262615    1.70038416811924   -1.20153994478301
H           3.23527676544013    2.67540274009822   -1.08614227745045
H           3.04340696763275    1.03620042873874   -1.11937313895334
H           3.38041917073997    1.44927102438552    0.71005483501362
