    26
        -50.44993715  Gyration_radius:  2.70492436184 Dipole_moment: 5.804
 S           1.30545006918193    1.13049129531570    1.06000883954592
O           1.36018749114799    1.97223217969805   -0.09178009331008
O          -0.07449756516127    1.24547012136958    1.75434817200896
O           1.55905374576127   -0.27172432197998    0.81759614517131
O           2.25484285513209    1.64433278050177    2.14633374271644
O          -1.87132879136096   -1.88672905013258   -1.17491229434833
H          -2.30196088745906   -2.73425663081427   -1.28972950604024
O          -0.11245095686069    1.07825933085952   -2.19051315559074
H           0.48760740502465    1.66337133443951   -1.70347460014120
O          -2.46039683623682   -0.08462317851862   -3.08296748554328
H          -3.11285648412918    0.53382165980919   -2.74666761590602
H          -1.61480592087932    0.39197587806073   -3.07550013168728
H          -2.12128454453000   -1.33715601440618   -1.95469874213889
O           0.84855226805297   -1.31330115628692   -1.59292990430108
H           1.23583500554302   -1.03857578661483   -0.74410761202964
H          -0.00434863181201   -1.72274463132378   -1.37882283689465
H           0.33347898295300    0.19449710641034   -2.15218485582875
O          -1.70508340793667    0.66959686203990   -0.09460534191705
H          -1.18271163193862    0.92262237619219   -0.89802253037720
H          -1.81562113523253   -0.29168503947063   -0.16185550330244
H          -0.80440451966253    1.04609932810278    1.06486777097353
N           1.96293877785413   -0.44079158080864    3.60644499703454
H           1.78950107526686   -0.93682456911094    2.73637730796714
H           2.23429079678977    0.91274285318894    2.86489571495441
H           1.11561763161333   -0.43750763378818    4.15803783790554
H           2.69439522914721   -0.90959351274306    4.12386168116115
