    26
        -50.44993674  Gyration_radius:  2.70569945091 Dipole_moment: 5.798
 S           0.76526845026194    1.30314794641390   -1.34799350264120
O           1.44488068118815    1.03970341715167   -0.09979922073839
O           1.36712529832019    2.54702669608490   -2.00790729322232
O           0.73119663428374    0.21394613054136   -2.27022459850929
O          -0.67046184582773    1.77682237690107   -1.01066697825862
O          -1.07709562807197   -1.53928460625253    2.21823862659118
H          -1.23021506188148   -1.75731804924644    3.13797678478955
O          -0.11729526716059   -2.12951580362990   -1.19389418631853
H           0.21636826100878   -1.52757762987500   -1.87654375320217
O           1.39627922160857   -1.49675107075704    0.88212280472567
H           0.67531080624779   -1.43746794548136    1.52833835667633
H           0.55326217890569   -2.06154085517692   -0.46795580556190
H           1.56872526807706   -0.58624121831184    0.58674367838702
O          -1.79942119459198   -0.33057566388878   -0.17812122754628
H          -1.21111693302215    0.97213906446147   -0.68169359368801
H          -1.26591506752299   -1.02939678072716   -0.63565620516290
H          -1.62071208706134   -0.45936250038123    0.76656068296543
O          -1.88654364457492   -3.43330564235320    0.48818024500120
H          -2.72876912607368   -3.17660057688907    0.10596457220726
H          -1.22230001012457   -3.27059045359907   -0.20069934438370
H          -1.36267839602539   -2.32336388057358    1.69266223906098
N           1.50648673318791    3.84517554627815    0.19620952904824
H           1.46561934637014    3.21824703910345   -1.23826538071250
H           0.63052674238407    4.26055629829694    0.48306426088364
H           1.60320737700411    2.93650791265520    0.64134235542649
H           2.26826728404159    4.44562023875920    0.48201694455566
