    26
        -50.44993710  Gyration_radius:  2.70509474388 Dipole_moment: 5.802
 S          -1.65720551949904   -0.86853841436948    0.77760700651877
O          -1.36130297612227   -1.56441884848347   -0.57435266184773
O          -2.62198129891254   -1.85525674205222    1.44176105102561
O          -0.42142188310012   -0.82019133005395    1.52573493668900
O          -2.29602135923846    0.39044341146458    0.56565221793260
O          -0.65501466965336    2.31763647668336   -0.41693243967802
H          -1.47745500880857    1.92796098705369   -0.08322551988638
O           2.57436293875449    0.86621302973847   -1.03152967879779
H           3.52706223066878    0.85299202991268   -1.12700907837037
O           1.38433072900306    2.99813398691136   -2.16010357793130
H           1.00203911556701    2.74158597296175   -3.00230784072816
H           0.63932822669205    3.07168443023624   -1.54219120415200
H           2.26375811416829    1.71111502845862   -1.43435817675978
O           1.12536084759250    1.40773738490995    1.31584776582567
H           1.78043906944633    1.12322590986713    0.65949254733130
H          -0.00468681800456    2.16356309446473    0.31429218146658
H           0.61645276073972    0.61278492396830    1.55043102617255
O           0.00721670497667    0.15730515946498   -1.82803974024053
H           0.94372595835011    0.08794661823181   -1.58513189972580
H          -0.82146860485678   -0.92217269793306   -1.16094852552790
H          -0.30414567287854    0.99728401081621   -1.40398992678404
N          -0.79248289757318   -3.59779646193634    1.86769981864498
H          -0.69376564969760   -4.16326096764620    2.70010559937601
H          -2.03780187519594   -2.66940762725833    1.66060036272666
H          -0.15329706210324   -2.80885686275976    1.91396397382669
H          -0.56602539028856   -4.15771249263024    1.05693179280735
