    26
        -50.44993711  Gyration_radius:  2.70500013917 Dipole_moment: 5.802
 S          -1.25145292490026   -1.51678031443906    0.49000011485005
O          -1.39207029527653   -0.20927810752937    1.09002542978221
O          -2.08647526906155   -2.53397036719263    1.27300724688963
O          -1.55287435780828   -1.58801346512721   -0.90358382561944
O           0.19332740258640   -2.00534941219122    0.76119553049068
O           1.87247721584803    2.20484101953880   -0.27604856070961
H           2.36880117455691    2.97160006878171    0.01153249649135
O          -0.30711731346438    0.30023744121417   -2.40464196449493
H          -0.88926048343902   -0.45118241617992   -2.21439218550862
O          -0.92414378994455    1.97964885545465   -0.45541510262486
H          -0.65027897387215    1.02172036167616   -1.81897036005080
H          -1.21428345724665    1.28684639142041    0.16250841617372
H          -0.01212680658577    2.19659446943907   -0.20633152208500
O           1.59813734423118   -0.52306201943012   -0.73469029901017
H           0.94486517144356   -0.28868628957195   -1.44226956099910
H           1.79662854610188    0.31641291798906   -0.29110001374238
H           0.83558198353503   -1.46622224089005    0.17384967551663
O           1.99685904184213    1.74292531776756   -2.92311555594502
H           2.62370555497210    1.03676052333056   -3.09541245989316
H           1.11659594465413    1.34679739933929   -3.02576407695361
H           1.95154251744908    2.17176166128745   -1.25848883781696
N          -1.38421544399118   -1.59261989287895    3.55001688602585
H          -1.28428244089038   -0.70261832178595    3.06931985831503
H          -1.89179257637934   -2.31591156915969    2.25631630048539
H          -0.47306883492463   -1.90485386459233    3.85736106286974
H          -1.98507893944783   -1.47759813627910    4.35509129757926
