    26
        -50.44993712  Gyration_radius:  2.70472294212 Dipole_moment: 5.809
 S           1.93920103544181   -0.08335974538811    0.58454335095281
O           1.38368685212604    1.12050403347049    0.00878010505702
O           2.05995915308754   -1.19114846860121   -0.30785932464558
O           3.28925903156849    0.23342131718490    1.23410948479344
O           1.07048164637517   -0.46215067764612    1.80979155442864
O          -2.80874647761461    0.46667751530711   -0.57826605980147
H          -3.61401818960355    0.98050540363378   -0.64564002892753
O          -0.20553703522454   -1.74297631876173   -1.69868638167535
H           0.71766647012719   -1.83635023787060   -1.41820196467434
O          -2.96348901584798   -1.97493876427683   -1.69657228521426
H          -2.03390968866584   -2.05258118267135   -1.96511947940357
H          -3.09380814755538   -2.63297853894695   -1.01005801537494
H          -2.97165573904257   -0.37545460628754   -1.06491182130686
O          -1.09353108527495   -1.25885552940766    0.76569265865229
H           0.17107719540611   -0.81893464637523    1.47505910210143
H          -1.67812567700749   -0.50716717272133    0.58094753687552
H          -0.77794244278719   -1.56050504581145   -0.12412230273574
O          -0.42335350440391    0.87545788674042   -2.00935541703068
H          -0.26545983110568   -0.80576813111875   -2.01395844536455
H          -1.25995051766985    0.97298702035880   -1.52826691425052
H           0.27974246781633    1.09299151327879   -1.37346152688271
N           2.45198649329855    2.41914039993906    2.27536187469574
H           1.92298044915343    2.28796860648083    3.12691877345677
H           3.12284265836024    1.10636886882364    1.74692476830291
H           1.80896183336565    2.46283321226132    1.48941501865726
H           2.97168203547284    3.28431329840184    2.33693574928295
