    26
        -50.44993717  Gyration_radius:  2.70479613277 Dipole_moment: 5.806
 S           1.95038414180199    0.05309590081468    0.54978056036592
O           1.10351593238379    0.11312882564716    1.84561047170784
O           1.40795106523543    1.02387149833616   -0.37363891423234
O           3.32255758327236    0.52227971832499    1.04157133664840
O           2.02483831220343   -1.28554951238350    0.05940008666615
O          -2.81024024994791    0.33719565557258   -0.65590732143542
H          -3.60473434713380    0.82513369461231   -0.87411495280503
O          -0.28566317906374   -2.18993292521160   -1.04323052716221
H           0.64175580850994   -2.21513317805166   -0.76227471344978
O          -1.10287100193815   -0.91288753886891    1.14695321578998
H          -1.67445039875694   -0.24380284175124    0.73897300668034
H          -0.81574856852997   -1.49384897100973    0.39699178926410
H           0.18859689213256   -0.30564014833193    1.65760188380244
O          -3.04732886648381   -2.32872285030793   -0.92454452483624
H          -2.12644959812040   -2.51582846433705   -1.16789257340193
H          -3.17600025702712   -2.72634913585690   -0.06047831128906
H          -3.00370293519870   -0.61171185345440   -0.84216253230200
O          -0.45110583263214    0.19442595856666   -2.17787465135139
H          -1.27370042777788    0.46555245167779   -1.74108338729738
H           0.27139450858736    0.58481182396548   -1.65678293282852
H          -0.33169292915473   -1.40257348732807   -1.64266864428103
N           2.55905568161655    2.94967442504345    1.33898651064317
H           1.89902590348904    2.75740061175479    0.59036988095699
H           3.18815747993246    1.51773502016225    1.24984018847514
H           3.09939741279663    3.77346077707792    1.11150327048758
H           2.04705787981041    3.11421452531547    2.19507180518309
