    26
        -50.46062686  Gyration_radius:  2.58216834187 Dipole_moment: 4.392
 S          -0.75266870851027   -0.35106793975460    0.14485061746746
O           0.39770683451643   -1.24574040437308    0.12028523874527
O          -1.63838873584028   -0.71927532246783   -1.06510977854646
O          -1.50425525593409   -0.45808005101669    1.37222865531109
O          -0.28306183171812    1.04582759673774   -0.06946884806808
O           1.10021587140103   -2.52345846472087    2.32691102794340
H           0.61812170400903   -3.34986431614653    2.38094714613880
H           0.85526522500821   -2.12900376370024    1.45955032402221
O           1.10888374556622    0.17482382469228   -2.16620974452677
H           0.67453118859024    0.67281584386177   -1.45056936003110
H           1.08297760601959   -0.73502125093728   -1.85095228044782
O          -0.73933092615544    1.04622830446132   -3.95641715753485
H          -1.06684430593048    0.27143094032602   -4.41630226487366
H           0.03348278762129    0.74893769591132   -3.43246539342885
O          -2.31187850749009    1.60051610437149   -1.86195939142102
H          -1.68776430395670    1.97073303640975   -1.22461111476250
H          -1.83053152015522    1.56083039289888   -2.72184405569964
H          -2.06887912553182    0.13791349130272   -1.39000612699220
O           0.14181549723964   -0.28577999374739    3.39931727341878
H           0.50614756053334   -1.19430344014120    3.31352381291579
H           1.06095283225543    0.42796816332970    2.52080065674343
H          -0.64531399076298   -0.29851857883855    2.80194096144736
N           1.64035698658627    0.83630238568168    1.65901766180107
H           0.89344342317106    1.07237373228169    0.93097218504582
H           2.20619383455517    0.08153046493930    1.27457564800551
H           2.20882212491966    1.64188155863559    1.90099427732833
