    26
        -50.44993714  Gyration_radius:  2.70481347444 Dipole_moment: 5.807
 S          -0.24197283318014   -0.47322861280141   -1.95550738704121
O          -0.52567428029377   -1.22868809865938   -3.25711528780631
O           1.08095091237606   -1.12638473368698   -1.48327537469063
O          -0.05152826866089    0.91759327909673   -2.21496264162853
O          -1.25993275251717   -0.78936544606396   -0.97929314556502
O           0.25395181250965    2.43039916081400    0.01913775097158
H           0.17816275755378    2.23883039086069   -0.92805552024702
O           0.26914354262014    0.25803820525893    2.88145614267922
H           0.13770951964631    0.01181728307507    3.79747236893822
O           1.73695417406220    0.27507236431496    0.52051048474996
H           1.43338153948149   -0.60324344135160   -0.67714357745688
H           1.29274754812118    1.13517623508858    0.30767784640422
H           1.28976240386685   -0.04514062459406    1.31946760716151
O          -1.71788614912607    0.98535348726387    1.03082240006520
H          -0.58413732912462    2.06788604592858    0.40329845428745
H          -1.71865420343773    0.33007136569426    0.31209860621887
H          -1.20421166352217    0.59103049467160    1.75301351279855
O           1.36247735850886    2.69196809273241    2.54165359996758
H           0.93369115471973    2.90920126664285    1.69831637546614
H           0.62145908669682    1.17916903871839    2.88630963326243
H           2.29671082472445    2.59581189310698    2.34340867610452
N          -1.14125973829467   -3.40053667820416   -2.04517408589457
H          -1.43827015459863   -2.80301592440437   -1.27846627422688
H          -0.34174953425719   -3.94364773602566   -1.74841301193672
H          -1.89342478098701   -4.02742809980916   -2.29744554842303
H          -0.76840091677644   -2.17673921770049   -2.94979160421269
