    26
        -50.45479398  Gyration_radius:  2.47167611305 Dipole_moment: 5.880
 S          -0.40705547529670    1.78643945168186    1.03267440890059
O           0.90574465836047    2.51088856922695    1.33180512974326
O          -0.38160782214552    1.31724830173501   -0.34126608093006
O          -0.37352215794607    0.54871970737998    1.96015730551811
O          -1.52275213888612    2.59739511479686    1.37498766253803
O          -2.08969156989620   -1.75784348597084   -0.74268851200271
H          -2.79078586774314   -2.41061327481071   -0.72260489326741
O           1.99147570441371   -1.22426497613940   -1.16405373542770
H           2.42096719075909   -1.92551843016660   -1.65576002587025
O          -2.98466828415915    0.69828247951423   -0.20027855340698
H          -3.26308097712298    1.18132880597166    0.58225450282172
H          -2.11525088676519    1.07705427530269   -0.41587394667337
H          -2.50633323269699   -0.89405342098466   -0.52059783802148
O           0.15256831959653   -1.64648917503822    0.80242709621302
H          -0.13690808542082   -0.33134618088863    1.49226636657602
H          -0.65965706343039   -1.79355240090436    0.27909206785381
H           0.87176013891755   -1.53253740525696    0.14983363525543
O          -0.18436716300073   -0.44259720912719   -2.38020246510492
H          -0.26288989445194    0.36081146810900   -1.83997194654416
H           1.23765033619301   -0.90370453300789   -1.73313958943451
H          -0.89096915592936   -1.02135585369888   -2.05802697875236
N           2.66085995220807    0.69999107216123    0.93401916944289
H           2.46823429992994    0.17899016706532    0.08053789618437
H           3.61076936097934    1.04565863434724    0.89441544494852
H           1.67167425042838    1.81765930189215    1.14310679215332
H           2.57783555306994    0.06340901681631    1.71688709727565
