    26
        -50.45479406  Gyration_radius:  2.47182643894 Dipole_moment: 5.879
 S           0.49444129202081    1.33168452328750    1.55204674514115
O           1.71157798145715    2.16063580971867    1.14057559563632
O          -0.43300889013667    1.27424090173484    0.43620678764413
O           1.06420465014748   -0.08969505482769    1.77238071870054
O          -0.05519039994321    1.80955123515518    2.77236835668493
O          -2.14983701089974   -1.81972823167242    0.27614181667243
H          -2.69730850390797   -2.56304983255189    0.53255148214085
O           0.62501473250132   -0.48823599170490   -2.48825078492040
H           0.57234211431519   -0.94082393071670   -3.33108254665730
O          -2.30309887692023    0.19396978351892    2.02216837361642
H          -2.25779165657948   -1.13821682548776    0.97824023166354
H          -1.95707188022905    0.38450811497935    2.89806173460603
H          -1.78103132027471    0.76392331173706    1.43183998656929
O           0.55229756601757   -1.75211299937026   -0.07490974053869
H          -0.40824427393057   -1.88841357478156    0.04297523307643
H           0.65563159471574   -1.33834858806672   -0.95484332531812
H           0.87590502462956   -0.75020336856522    1.01237979805640
O          -1.75371213039469    0.20885475400049   -1.66490069495423
H          -1.40346923716064    0.80534243861120   -0.98303607072678
H          -0.29524156478827   -0.15889909827898   -2.28882221165840
H          -2.09598682363621   -0.55026370712890   -1.17014700249779
N           2.63762287630390    0.86770347449788   -0.85661472662317
H           3.33380194658870    1.37299971779450   -1.38896969073849
H           1.89287528172227    0.57730211479959   -1.48748305808096
H           3.06429190260389    0.03548731542786   -0.46879654294894
H           2.11098559578330    1.69178769787796    0.28991954546448
