    26
        -50.44814538  Gyration_radius:  2.69863357123 Dipole_moment: 6.933
 S           0.29730721386913    1.31123689428051   -1.44086595591274
O           0.47358051596081    2.36254491871586   -2.45960508307652
O          -1.09358426317735    1.32629273249881   -0.95026948919470
O           0.75451677219423    0.01215302359067   -1.83048323143240
O           1.15665549892159    1.83107004118267   -0.23655508500634
O           1.58339945096087   -2.89119510690250    1.02989287050255
H           2.03783114450103   -3.72289472238049    1.16560058121449
O          -1.39590349997548   -0.93067291893587    0.49604458243648
H          -1.50389547273054   -0.11818144403654   -0.02930500543293
O          -0.55549537881813   -2.49736306800025    2.63855880089739
H          -1.13218482224247   -2.09072652336402    1.97270644841779
H           0.81674688029041   -2.88517298614346    1.64708210088344
H          -0.27352720372502   -1.77974488975272    3.21131187584730
O          -0.07674284155797   -2.48621697326528   -1.18725226410891
H          -1.07714352828418   -1.60298634046936   -0.15933331986775
H           0.25670548938350   -1.68872321163401   -1.63177964265661
H           0.62210182059025   -2.74210457960470   -0.56311844645901
O           0.98515340049238   -0.14224851880994    1.39350416800395
H           0.06896315472102   -0.42168504267027    1.14101004301387
H           1.54855946116393   -0.88498818690400    1.13712564484831
H           1.18112759637882    1.09622283166724    0.45226195063878
N          -0.96534383887831    3.86120233622495   -1.13808020911100
H          -1.66942579451281    4.44509288748738   -1.57537033797718
H          -1.33550338671225    2.91980050186051   -0.82495664768780
H          -0.21738078712479    3.37539340347689   -1.87259464975419
H          -0.48651757170286    4.34389493181312   -0.38552970902730
