    26
        -50.44993712  Gyration_radius:  2.70457037603 Dipole_moment: 5.813
 S          -0.06956299212473    1.55380524850903    1.30017704700593
O          -0.29840182049978    0.25884473085593    2.11875855794920
O          -1.26706017600566    1.94059522766121    0.62594768993800
O           0.28254832898003    2.56641670194058    2.39361865450664
O           1.07959232535377    1.33821842346229    0.45027070424355
O          -1.90636150541567    0.35561220065413   -1.48348566765888
H          -1.99150504141109    1.09138497820042   -0.85805149175411
O           0.47190069980473   -2.33205862506261   -1.66822628119900
H           0.99577972037583   -3.01237527757112   -2.09212115092549
O           0.66890691771990    0.44077097352014   -2.08448864338824
H           0.83610967294819   -0.50889191196026   -1.97886417524805
H          -1.00678636258645    0.48159654533518   -1.87872920489477
H           0.93490468053158    0.85565925938934   -1.24600660569785
O          -1.14315156693866   -1.38154259836194    0.38562189953129
H          -1.54435027571104   -0.76698363864218   -0.28062554021611
H          -0.40054086555805   -1.80016736315904   -0.07706008910910
H          -0.66449169419176   -0.46295126741778    1.49179727164575
O          -2.07078549250991   -2.19926285740571   -2.53589640058750
H          -2.19908507961058   -1.24491328225703   -2.41351455567689
H          -0.41342972597527   -2.34839989075946   -2.10239201902717
H          -2.64758031167917   -2.62516815725273   -1.89774232075797
N           2.58543383778617    1.53232015867706    2.82892992688470
H           2.56038618487892    1.24470762550643    1.85436660006668
H           3.43919202268693    2.04291623433143    3.01008673682713
H           1.20864098912438    2.27043894937601    2.72183600123436
H           2.55969754013883    0.70942760249585    3.41579307640378
