    26
        -50.46062694  Gyration_radius:  2.58231993103 Dipole_moment: 4.394
 S          -0.27459235512872   -0.58281249210922    0.54318600283879
O          -1.66348247534604   -1.21396443295130    0.30484880772109
O          -0.44300887653564    0.89255531354247    0.43175400298424
O           0.22830339827552   -0.94597888253004    1.84626489448939
O           0.59400031220211   -1.04224695133102   -0.53331633003253
O           2.97676414260601   -2.03230275794727    0.04694846042872
H           2.08155830205117   -1.73423310517896   -0.23172165970557
H           2.89735879934999   -2.97309737515061    0.21077338535199
O          -1.01880560361159    0.55500918129190   -2.14624412808601
H          -0.83906605165470    0.87281427525392   -1.24318440864723
H          -0.60425342606180   -0.31433600684551   -2.16238947672794
O          -3.69599367747184    0.77462105930662   -1.74277862422759
H          -2.76213641360295    0.74796854510570   -2.03847090762515
H          -4.08521870617160   -0.06135609188886   -2.00490808649613
O          -3.16721924633355    0.75488944151900    0.88121685287713
H          -2.37726373558854    1.30744383752987    0.93948044297765
H          -3.52349683247824    0.88519138296222   -0.02922924830982
H          -2.35285103923745   -0.54665345446729    0.62911367117377
O           2.74661985363282   -0.25464067943698    2.01233200786993
H           3.09217589344215   -0.98839143512059    1.45764052956602
H           2.48620318522237    0.73345451870147    0.97242667266324
H           1.81244099504113   -0.52357422474780    2.19032214416845
N           2.09527927678632    1.32035246461142    0.10752243228195
H           2.45957250325750    2.26701375430048    0.06540904220252
H           1.03392484824606    1.30057369419167    0.23720138701770
H           2.30318691910580    0.80170041140191   -0.74419785675185
