    26
        -50.45347372  Gyration_radius:  2.42476764937 Dipole_moment: 9.791
 S          -1.51975070771264    0.63065224368775   -1.37276561242175
O          -2.18670189663504   -0.44394073700114   -2.04844671646744
O           0.02580770988735    0.53723003379606   -1.70744970935379
O          -1.86601946996522    1.98067405563430   -1.72449192761071
O          -1.59853302438856    0.43640496811085    0.10742664333375
O           2.19012067364369    1.24539049495967    0.15865133928259
H           2.93293654897904    1.84531869810005    0.23854853427803
O           0.27999631624244   -2.47103141775892    1.31305336532529
H           0.31727510965550   -3.34000621049568    1.71410216176317
O           1.58600103272667   -1.43181592855922   -0.90140071886523
H           0.41852727680340   -0.34912173386326   -1.56265933973952
H           2.09792939916795   -0.68001297769307   -0.57948587954761
H           1.23291537727720   -1.89500392869029   -0.12482561826760
O           0.19178486400492    2.91608300633442   -0.40624799853342
H           0.40705825286681    3.67050101713929   -0.95852354292082
H          -0.60931527619676    2.52526628000620   -0.83281908217754
H           1.45220512530229    1.77532423609410   -0.24153992048080
O          -1.99657644636225   -2.14521990240348    0.11315684338785
H          -2.13079610357664   -2.27703034898375   -0.83244798414869
H          -0.60335291021690   -2.42291223645618    0.83765068584884
H          -2.02950180845440   -1.16526472807414    0.18808826196963
N           0.30233464982680    0.21275071020824    1.76145353089183
H           1.15343063369058    0.61971066519135    1.32154849578889
H           0.09233768105655    0.64520994178522    2.65331159069748
H          -0.52152482230322    0.39777494899867    1.04969311056072
H           0.38141181510457   -0.81693115943359    1.83641949774523
