    26
        -50.45347341  Gyration_radius:  2.42457257965 Dipole_moment: 9.795
 S           1.64513767829665   -1.35065454463096    0.24222594813599
O           1.44161479415202   -2.35226867912976    1.24796382760257
O           1.44498586810254    0.01196178200257    0.82350301495675
O           2.85330225323735   -1.39629984670766   -0.53522851145257
O           0.49509207784272   -1.49802635410457   -0.83747987749043
O          -0.73437076995860    0.73673965163760   -2.30153617071328
H          -0.85964987133511    1.06249215009095   -3.19397256022755
O          -2.01430131591546    0.67787566006524    1.84058415399247
H          -2.67295017567938    0.85138744561050    2.51397513629283
O          -0.04807300263014   -0.67759599706720    2.85271337099053
H          -1.30435129823478    0.12281422099354    2.28399924432266
H           0.03832692187483   -1.63515466111693    2.78028468018691
H           0.64452638976403   -0.36383389042404    2.22907058423113
O          -2.05386157320912   -1.02708790944486   -0.34551852074644
H          -1.93500743780771   -0.46709165290169   -1.12206085774609
H          -0.40996494525638   -1.53439594927351   -0.46279584863926
H          -2.18375823185665   -0.44047100363857    0.41694083204966
O           1.90463284566295    0.36566568596817   -2.22205180927345
H           2.32284031411582    0.05819938922242   -3.02896863045079
H           0.19511294432914    0.39069382558833   -2.26464103887531
H           2.24757334078858   -0.24438671742044   -1.52451922381340
N          -0.22072290770911    1.78011938257884    0.11648728200528
H          -0.99285192792455    1.60526059723329    0.78384031671334
H           0.56123366359957    1.04106275155783    0.36423086794952
H          -0.51603758986612    1.56436574338434   -0.85825936582977
H           0.15152194565892    2.71862890995213    0.20121318583922
