    26
        -50.45347347  Gyration_radius:  2.42454751253 Dipole_moment: 9.794
 S          -1.19712796799059    1.72414795783177   -0.42886464050662
O          -2.54167287351664    1.74344736310661   -0.93682879887906
O          -0.30332429216029    0.94168253641136   -1.33640626912523
O          -0.58002579016104    2.97101353321463   -0.08146614751248
O          -1.30189732113488    0.84506343272036    0.88503048548537
O          -1.04358310907283   -2.08332965809983    0.97477920722167
H          -1.53900177795094   -2.86653414584940    1.21851554451549
O           2.79192284566812   -0.18863096371841    0.27023770878446
H           3.74546137582940   -0.17448843108552    0.35919121357915
O          -2.74188446604215   -0.85263688274543   -0.67132972886467
H          -2.59836754540270    0.11393100844667   -0.81779741847879
H          -1.68910912559254   -1.48152294192308    0.52071506185736
H          -3.67536198530451   -0.92205682522300   -0.46065653986885
O           1.95717971231439    2.07515301758734   -0.68185497489373
H           2.53142953213485    0.72169106020746   -0.06472633922095
H           1.14042097021591    1.72979627473240   -1.10689716554535
H           1.61040091789190    2.79190286067093   -0.13812568312348
O           0.78508847118455   -0.11557328139713    2.18212014017484
H          -0.46470466552077    0.76906404862032    1.38918890523552
H           0.27924218720433   -0.92917585298698    2.06826886106106
H           1.57356340067330   -0.18419846940380    1.62005955900759
N           0.66905608469700   -1.36354289607307   -0.96152922024258
H           0.08569858139155   -1.83988399759869   -0.24284830789662
H           1.60287289657744   -1.12679977686229   -0.58198089973436
H           0.73045973334750   -1.90165791777253   -1.81780632260490
H           0.17326420078331   -0.39686108263907   -1.15898822036524
