    26
        -50.45731623  Gyration_radius:  2.44433254177 Dipole_moment: 6.860
 S          -1.10701601094766    1.19000670636909    1.16930765116822
O          -1.24190160333245    1.66565409015414   -0.19640669303299
O          -0.37375292601868    2.10176912498191    2.01942580012017
O          -2.53371850910383    0.97545037916440    1.75946865492228
O          -0.45891197395797   -0.14633313577972    1.20148131830480
O          -1.04743771180172   -1.80307947837064   -1.95779755365693
H          -1.20416746180748   -2.55474592596243   -2.53027463315058
O           2.62290531699482    0.22166302465941   -0.61185176967716
H           3.31744807319095    0.61059540797013   -1.14500969342174
O          -3.01560121209513   -0.29345546913757   -0.54402252869859
H          -2.54966356571167    0.52950587823381   -0.75981322669198
H          -2.47027768726625   -0.98651681469932   -0.94742607889385
H          -2.95241379096967    0.38415136801610    1.10132327174014
O           0.81861523375534   -2.12388635685372   -0.08368846873646
H           0.27458502681959   -1.51887495628177    0.45406040471631
H          -0.38414286886260   -2.08485938486275   -1.28527429964889
H           1.59190096484029   -1.61112357137094   -0.34471393462759
O           0.43086139698772    0.59462792111546   -1.92445494913365
H           1.77191184047888    0.37317339053360   -1.13137897102188
H          -0.06712553923172   -0.21217853492950   -2.13199546034859
H          -0.16668409014748    1.10367137257133   -1.33479876798815
N           1.80923337567148    0.72350325125068    1.86977483031148
H           0.92942059226516    0.10940798701840    1.72626929086535
H           2.31324837247278    0.67977286335805    0.94940414290330
H           1.30523485366703    1.62424663817386    2.02272290884923
H           2.38744989411254    0.44785423467991    2.65566877482944
