    26
        -50.45347334  Gyration_radius:  2.42446109958 Dipole_moment: 9.796
 S           1.69504357795793    1.08522616113910    0.73377187266086
O           0.66488959446541    1.62189644914588   -0.34366229095554
O           1.35612521480785   -0.36211759753949    0.89213665567567
O           2.97255465209920    1.23824510935985    0.09292168315390
O           1.45868499298065    1.78582155227242    1.96237859993291
O          -2.21895894656430   -0.98035869595033    1.42038041802177
H          -2.94863504280765   -1.27429053371344    1.96677205357412
O          -0.55580000595719   -0.00946553825492   -2.46405951869846
H          -0.61515650652392   -0.06498194707679   -3.41886420224505
O          -0.27811013817143   -0.13048708101865    2.91645425673967
H          -1.52142328900984   -0.63212909772343    2.05360959961953
H           0.45000009834085   -0.31937136574220    2.28305267710297
H          -0.12594298971979    0.79898219213759    3.12271510577469
O          -1.94378971752623    1.25643416857250   -0.19454445131233
H          -1.78655251280326    0.92325179924552   -1.08617304534876
H          -2.18195755000987    0.49639274523424    0.36041464995128
H          -0.26783069707831    1.63233257061719   -0.04230527694577
O           2.08152145301098    0.09341077507036   -2.08582034143394
H           2.59556282972728    0.57020597460391   -2.74069051182104
H           2.39312742426799    0.45769479356622   -1.22190846696766
H           0.38565046412073    0.23111104313371   -2.26205297164329
N          -0.34093226134124   -1.71724855241796   -0.40575377734504
H           0.45817250518967   -1.14503464971775    0.09730105676413
H          -1.16087023634519   -1.66662122822707    0.22449896578481
H          -0.52803263233249   -1.21755028444588   -1.29970307742680
H          -0.03734025082947   -2.67134877215937   -0.56086965259116
