    26
        -50.45479399  Gyration_radius:  2.47172801666 Dipole_moment: 5.879
 S          -0.52670069706368    1.69351281581062    1.13049625561698
O          -0.22912098631290    2.02670005265021   -0.35055985398538
O          -0.58759209031631    0.24858610180817    1.26091377018535
O           0.70281622321203    2.20598807551532    1.88105363498497
O          -1.69671707871852    2.38829831284179    1.54039120400198
O          -1.90621466345239   -1.30786287330846   -1.63274778961089
H          -2.50811829345989   -1.52702546697037   -2.34531397879369
O           1.99932175132288   -1.65117750288730   -0.31014359189949
H           2.46260698549091   -2.40633711959456   -0.67491872591068
O          -3.05513951367077    0.23677574661696    0.21695950916468
H          -2.27189104553059    0.15835725873294    0.78811634796084
H          -3.30917606828060    1.16028273996256    0.29325781364299
H          -2.40731831312687   -0.73172675871461   -1.01145821183551
O          -0.37899058080690   -2.34056151879304    0.52183129175587
H           1.15282468184063   -2.00401986803417    0.08216056710289
H          -0.50484133834677   -1.51463471012141    1.01727062478995
H          -0.96384865332702   -2.25454728171628   -0.24533621449233
O           0.45448664465566    0.04571061369720   -1.78027553040349
H          -0.38265508737168   -0.45545920134616   -1.83732779336871
H           0.06986198535631    1.22796679586156   -0.91796075945936
H           1.07794792356797   -0.53293390048935   -1.29808387117000
N           2.62972454901307    1.02085589138367    0.69747214728054
H           2.41695158399444    0.03809969352871    0.53675570481724
H           2.71754222236740    1.47527834524832   -0.20295912545350
H           1.52904483922684    1.71503228550265    1.45792431671619
H           3.51519502974013    1.08484147281210    1.18248225836710
