    26
        -50.46954184  Gyration_radius:  2.39864483091 Dipole_moment: 4.981
 S          -1.42445528267850   -0.70446698840996    0.07365067893856
O          -0.77319115799689    0.06378442936265    1.13710874412635
O          -1.09211989753759   -2.20933637693392    0.31873795649396
O          -2.84870641712518   -0.51579636332965    0.05037447984189
O          -0.81225849536818   -0.37810709451180   -1.23149515110895
O           2.71181852572273   -0.75571149051129    0.06341453837331
H           2.20081694944916   -1.21772289293739   -0.64926051505507
H           3.63319785799395   -0.98102462105007   -0.07131514124613
O           1.32613435279317    1.60915612534142    0.64412699068484
H           1.98185504548403    0.94389715585075    0.38268344243684
H           0.58092486400775    1.07983879125224    0.99959890794269
O           1.16961571724441   -2.03877904423776   -1.64868798930692
H           0.40332498709599   -1.42211899432077   -1.61671895399716
H           0.82977049243447   -2.87688170673802   -1.32620614277469
O           0.93426360396388   -1.81515824328944    1.89147895233167
H          -0.30714449781084   -2.22274270807338    0.93382643238369
H           1.69436263841933   -1.51431933142898    1.35998700926986
H           0.41955719092883   -1.01148216300358    2.06803711186551
O          -2.66583659354635    2.08437421676580    0.45188160384545
H          -2.90325774352409    1.14716475104968    0.26071714056194
H          -2.35415442183450    2.06804368073709    1.36087387295095
H          -1.38863084431006    2.36320715513692   -0.52653768376574
N          -0.53290926652343    2.17575245140466   -1.11934441623904
H           0.32790465891432    2.19634298750830   -0.50386689630122
H          -0.47187028094209    2.78527227898559   -1.92675300180746
H          -0.63901198526815    1.14681400538421   -1.37631197043507
