    26
        -50.45250244  Gyration_radius:  2.41865169561 Dipole_moment: 10.184
 S           0.66359780854638   -1.94275782033025    0.69935430413797
O          -0.25110293370133   -0.87180777149072    1.13961062460941
O           1.01792013451897   -1.60135173197899   -0.81358201449997
O           1.91565850637448   -1.88342638133340    1.41994313987182
O          -0.00657146296970   -3.21484812754409    0.69030930649301
O          -2.51817155403409    0.46100902470010   -0.55834876543592
H          -3.38137648212564    0.45049733057774   -0.97477382659727
O           1.33908140313415    2.36027301753466   -0.06445129815840
H           1.94302073405191    3.09897243431194   -0.14939457275358
O          -0.04321180113021    0.62173723637200   -1.77326375198898
H          -0.95865244911247    0.64513999270901   -1.44763792653850
H           0.43406844341931    1.33791238400001   -1.32979523430474
H           0.57952141808122   -0.78097688636738   -1.14899510736777
O           2.82192326219746    0.28036125984720    0.36391443995821
H           2.50282379434974   -0.50737397582645    0.88369094011482
H           3.06160848632425   -0.09458694196650   -0.48751373253144
H           1.91082053729000    1.56280888372821    0.15185888248580
O          -1.89265553919823   -2.10306674383910   -0.76080477400930
H          -1.28776763012806   -2.53554329729256   -0.11494839600165
H          -2.26791513598488   -0.49680501902220   -0.45516806135718
H          -1.48258340465119   -2.25545601105422   -1.61572038849383
N          -0.83118359378779    1.54411131952725    1.28857755372101
H          -1.65635785047309    1.46994067169739    0.67611753688140
H          -0.06857665845082    2.09388357446150    0.85170444637392
H          -1.06924283910441    1.87087229413752    2.21687411837968
H          -0.47467519343675    0.49048128444162    1.31244255701186
