    26
        -50.45235000  Gyration_radius:  2.42735925216 Dipole_moment: 10.538
 S           1.69123861076439   -0.88903297835123    1.12264156452318
O           1.30858528028921   -1.64131963148498   -0.22846409654296
O           3.04502096672135   -0.42100477366311    0.95245879104370
O           0.75121154880248    0.23892384933030    1.22560607381034
O           1.47785166367065   -1.83957302191021    2.18651667010222
O          -2.60358184391918   -0.48143053622424    0.43034753182536
H          -3.47226932495611   -0.85430930345026    0.58609187391466
O           0.16391316245000    2.02091121249791   -1.75379025460317
H           0.38274644207931    2.63058204609747   -2.45966647605754
O          -0.71460015244025   -0.62731283892478   -1.62290034348410
H           0.55298738212269   -1.23211199081991   -0.71252242245717
H          -1.48279604341330   -0.60884966509042   -1.03280445657328
H          -0.48526304272137    0.29333824664451   -1.81932609574242
O           2.42788067007246    0.84544578654063   -1.21798056724069
H           2.51362634781053    0.09166215867843   -1.80732133954429
H           1.03516300456104    1.62045487460008   -1.46503020511908
H           2.69075776319404    0.48509746608341   -0.33174904370772
O          -0.97471074929374   -2.23458107978369    1.46336311696653
H          -0.78150305503985   -2.89016831316845    0.78836896143571
H          -0.08724697461110   -2.03033029463316    1.85732878462748
H          -1.96173455549092   -1.09093911761670    0.89873400769688
N          -1.13062999541180    1.76230913315553    0.58862537282683
H          -1.92764655829589    1.10396691506218    0.52799138221839
H          -0.82657446913620    2.10064457787937   -0.34160107985589
H          -1.29627398282741    2.51676714474695    1.24355342157991
H          -0.29615209498004    1.13086014380528    0.92152883835595
