    26
        -50.45250246  Gyration_radius:  2.41878727691 Dipole_moment: 10.188
 S          -1.47855391948445    1.47239273036213    0.59330360173060
O          -0.61598166655798    0.46248897646567    1.23609407265522
O          -2.84844385333381    1.30483799462776    0.99681968606126
O          -0.92420682410604    2.79912554606949    0.74404835226419
O          -1.41779321424933    1.15170621841923   -0.96384614283753
O           2.54883072173675    0.36480469171665   -0.85984947616372
H           3.38068563956839    0.61987184111153   -1.26060313183257
O          -0.36726527607072   -2.55727720618315    0.44077768438210
H          -0.70287324335288   -3.45447572549288    0.40896842917183
O          -2.64628838113245   -1.21937198871493    0.30007709853213
H          -1.17311399872766   -1.98198423463065    0.54361668588652
H          -2.73985424129668   -0.32258858644667    0.69653438326875
H          -2.87943312132815   -1.10073386235232   -0.62395237745475
O           1.09626177281046    2.50902987140738   -0.82188385310994
H           0.61183852354618    2.55490392037955   -1.65025783943576
H           0.39507945980234    2.67025456287992   -0.13281579652539
H           2.00468639596218    1.20729661818762   -0.79910299677085
O           0.15698741735122   -0.85209725140529   -1.66808524293900
H           0.01175914112225   -1.55303370358650   -1.01074811113692
H          -0.84468883351698    0.37774196085278   -1.18753960631537
H           1.05708444578074   -0.52096991222542   -1.53580435745841
N           1.52361174902681   -0.80640370229176    1.32725193769459
H           2.13899010019573   -0.47007207605804    0.56378258383117
H           1.98234848826275   -0.80830374083475    2.22987658256479
H           0.63905784533951   -0.13198722384154    1.32738794778788
H           1.09127487265024   -1.71515571841698    1.10594988614986
