    26
        -50.45250238  Gyration_radius:  2.41879228915 Dipole_moment: 10.192
 S          -1.63721593717253    1.14623357771439    0.84403809023526
O          -0.85996870180300   -0.06427419400187    1.17205391015665
O          -1.65870127256236    2.05616833201411    1.95722379100494
O          -0.82734387407367    1.86671956981437   -0.32046690263714
O          -2.92053558452972    0.79977200300958    0.27532286128214
O           0.02505849926314   -1.63123721304734   -2.17006123905364
H          -0.05651857991093   -2.07995819283924   -3.01244361047804
O           2.26162742927672   -0.30273951401141    1.28865380827592
H           3.10803076477506   -0.13809956262514    1.70717833735638
O          -2.06532562407617   -0.11469257697648   -1.97209831380905
H          -1.85715177922395    0.73295570272015   -2.37353772532786
H          -0.81038536320744   -1.08191356294846   -2.07061341579012
H          -2.46652952091670    0.13519009228207   -1.09513955609441
O           0.96044363097044    1.87863623812273    2.03201007943342
H           1.65554682602113    0.40357893603233    1.64167988567307
H           1.13931564078270    2.57686112417611    1.39737345930232
H          -0.01919379518589    1.88178802004699    2.13457688818075
O           1.35051007502345    0.61854777462846   -1.15107226475927
H           1.02720812070945   -0.15652508471341   -1.63275545073187
H          -0.00326039135042    1.38870116154789   -0.58466777540053
H           1.79518486715013    0.29120595168373   -0.35126585540267
N           0.38724247375247   -2.09361678449774    0.44915413884676
H           0.33868403570063   -2.15902292778021   -0.58432246304123
H           0.11290911285740   -2.95215013906913    0.91051454611746
H           1.30253058504115   -1.74960828295355    0.77425983581420
H          -0.28216160731071   -1.25252042832900    0.73440493084703
