    26
        -50.45289445  Gyration_radius:  2.64833299098 Dipole_moment: 2.979
 S          -0.13320593197367   -0.79470294111314   -0.11851364138466
O          -1.33506525929296   -0.85460734915379   -0.89491626358843
O           0.96453097888736   -0.07680171617451   -0.92752811424704
O          -0.37064918023339    0.11274410091274    1.08386872832723
O           0.39093286077196   -2.05917213875193    0.33762247973236
O          -0.99439038923228    2.78029483267681   -2.67277915984695
H          -1.50324656086847    2.54182323448169   -1.85055179816463
H          -0.29811021272238    3.38071354923971   -2.40255803354630
O           2.92601429093138   -1.19935610525146    0.73404413406875
H           2.15082144773837   -1.74642383498432    0.52050226926034
H           3.01703770838235   -0.58808257240110   -0.00138562063543
O           0.31596902571248   -2.62893107591022    2.99106925396769
H           0.33589349390761   -2.62277289894827    2.01711881055637
H          -0.56948251458742   -2.89063959407454    3.24675065615832
O          -0.18433943920585    0.31780880393844   -3.10136090766762
H           0.57601496139256    0.11750896083013   -1.87649757026720
H          -0.95941519702826   -0.19747200850697   -2.84357424784113
H          -0.47203753094073    1.27134480389148   -3.08433858958559
O           1.46279319118461   -0.22340826537945    2.71999397941230
H           1.14178029327220   -1.05740361277330    3.12256956662994
H           2.20197603405774   -0.49934436472005    2.12631310682851
H           0.41746896920276    0.02928217149900    1.80728078207973
N          -2.17352631747837    1.87514601860480   -0.44992806513074
H          -2.05111956002970    0.87431432160694   -0.59374679753037
H          -3.16163143163858    2.04446569125519   -0.30556813358069
H          -1.69501375021365    2.09367198920985    0.41611318598737
