    26
        -50.45250220  Gyration_radius:  2.41883922926 Dipole_moment: 10.199
 S          -1.11404233959974    1.68516758382738   -0.79301460638265
O          -1.41366556479796    0.28240427724581   -1.48148690853465
O          -0.36422827394354    2.44893594947848   -1.76506212245129
O          -2.38403417142905    2.23074555133374   -0.39688555830778
O          -0.28603023243474    1.37400078341529    0.38781304113090
O          -0.62144215260655   -1.08600669570782    2.30178204834540
H          -1.07714689417499   -1.56007846687413    2.99907852656454
O           2.35520626215811   -1.05970119646585   -0.83959559570802
H           3.11705368688571   -1.41895405752034   -1.29585175587994
O          -2.67487835096824    0.15259558232379    1.18240425914581
H          -1.30320828797182   -0.47100505577808    1.91716788857727
H          -2.56252014567256    1.01080701473228    0.71222652862220
H          -3.06895960419482   -0.43077735480409    0.52917142114993
O          -0.29408887834678   -1.82420604009484   -0.34038067285489
H          -1.00422193505940   -0.48544216420101   -1.01227983071207
H           0.65152253193901   -1.74291226289775   -0.53168589568515
H          -0.40240296206300   -1.69952087125819    0.61731385192463
O           1.24221325017280    0.58125802507869   -2.50606228545139
H           0.72225936346890    1.37759529120077   -2.20935673568176
H           1.95381870537674   -0.38499458443598   -1.46668831455336
H           0.61196709307602    0.08594682593937   -3.03569211874186
N           1.63082311390195    0.17586204924585    1.43080464203063
H           2.25412256444521    0.75787666238445    1.97669622553815
H           2.12401934891699   -0.36046299086255    0.69341647495939
H           1.04086284021301   -0.42786846678306    2.02192727465945
H           0.86700105271003    0.78873459147757    0.90424020829729
