    26
        -50.45731620  Gyration_radius:  2.44438873733 Dipole_moment: 6.851
 S           0.37486867451788    0.12684469779952    1.96073588944232
O           1.66399150555231    0.67204790649306    2.32551196737232
O          -0.21437508273740    0.93909723859469    0.86566085155140
O           0.43296275970288   -1.27617921123067    1.58967326534405
O          -0.60334195142509    0.27792517363367    3.16487921407571
O          -2.33968347968893   -1.18796687586648   -1.14401153000861
H          -3.09902488704790   -1.38894727410631   -1.69211927009015
O           1.74896976346486    0.19390116817287   -2.05358737814458
H           2.40554065021065   -0.21419013597157   -2.61956138775489
O          -2.23012106695568   -1.26301206784043    1.70692244715388
H          -1.34656844385674   -1.66158813074265    1.67046565142222
H          -1.41949578313139   -0.14968466090981    2.83437150365527
H          -2.46916257653351   -1.13224026570728    0.77614010920677
O           0.41815674987280   -1.75150352607698   -0.99920493194346
H           0.51388516091472   -1.66013525157687   -0.02631938632590
H          -0.54034181355841   -1.72807870982077   -1.14926854262159
H           1.23498064017797   -0.57235397744081   -1.64668720921391
O          -1.09237327729753    1.10843810761730   -1.66237613733522
H          -2.02199527920905   -0.29264822889347   -1.40685341370146
H          -0.89725839068200    1.13041828927190   -0.70693596508515
H          -0.25435056612391    0.90206306601868   -2.09137355049652
N           1.99424577872357    1.82247489917914    0.03426613786974
H           2.13813938620215    1.21815170779152   -0.81283993871061
H           2.28212831253822    2.78427913510305   -0.10712421465329
H           0.94737215031520    1.70158996547098    0.27857000686750
H           2.37285108605404    1.40129695103513    0.91106583212237
