    26
        -50.46116068  Gyration_radius:  2.45237248965 Dipole_moment: 8.883
 S          -0.01740777966172    1.77270049618687    1.17300644368044
O           0.92677797903132    1.85670547017303    0.03005759076515
O          -1.08774656671263    2.71402618729102    1.06820537749197
O          -0.48090878163924    0.38606829376406    1.28860191482713
O           0.81567721864521    2.07922331890997    2.45921458106970
O          -1.93388753857331   -0.71785778481297   -1.73212878202636
H          -2.58112074556585   -0.75657305533574   -2.43730030021311
O           1.80379001461509   -1.97597526750807   -0.26336905669685
H           2.24173724340031   -2.82368329328122   -0.34440026935348
O          -2.83305788031189    0.77374664431460    0.20325784057730
H          -2.79407045090195    1.73720309803047    0.19915239081478
H          -2.08294305358236    0.54282145366708    0.79099905875072
H          -2.33329640044196   -0.13681356594101   -1.02217909205632
O           2.57609352533984    0.29097913852344    1.41850934956717
H           2.21892179050668    0.91420295280242    0.76457001289275
H           1.51835737568796    1.40900230563350    2.44113724008650
H           2.37353972976489   -0.58810667785490    1.07305066291923
O          -0.67682464357551   -2.13896295813795    0.49456540888744
H          -0.64439155349607   -1.28819571046160    0.97447075849934
H          -1.26922149313555   -1.97584336599836   -0.24952844904402
H           0.89182113970010   -2.15377839061284    0.10404569101867
N           0.67531365703920    0.00725608629715   -1.71534896805841
H           1.05877864189296    0.29730026472696   -2.60840797168151
H          -0.32803331554335   -0.26948297569929   -1.80305977389055
H           1.21867895155646   -0.78364471095498   -1.30984199540435
H           0.74342294596152    0.82768203627798   -0.99727965342380
