    26
        -50.46116092  Gyration_radius:  2.4525328465 Dipole_moment: 8.895
 S           1.57436719707507   -0.42114143828575    1.36726789429809
O           3.01739663251613   -0.92569810454500    1.04224912756750
O           1.31095316195407   -0.60854910026576    2.75949220403310
O           1.52876022326751    1.00845853463711    0.96859576362566
O           0.65830995570144   -1.17197787018481    0.50250334051053
O          -2.60517775305887    0.16864849454628    0.65815946414768
H          -3.45500031684058    0.37989989305564    1.04659465208843
O          -0.01260805403833    0.55840342267782   -2.63110864786583
H          -0.21275159723190    0.59686382652433   -3.56677072471084
O          -1.27371497360427   -1.39688972095001    2.25662295000133
H          -0.76692104191711   -1.08385294534949    3.01500198421992
H          -0.56934156387212   -1.55228200985073    1.59247688025374
H          -2.14329794508310   -0.43069012494126    1.31286814230014
O          -1.20052772776239   -1.38436077157700   -1.37981209662755
H          -0.45530346650218   -0.26268583452014   -2.27268387130096
H          -0.46862570948164   -1.49965375640211   -0.74242043465931
H          -1.93270621052428   -1.04544208310354   -0.85022299551978
O           2.60776230956517    0.28343053470987   -1.35739940905193
H           2.30636283847206    0.80772540517028   -0.59731494151241
H           3.11231123486210   -0.74941442042440    0.09206304206345
H           1.83558867225480    0.19488035739316   -1.93100490864269
N          -0.59141499957976    1.72813834303547   -0.26296257775225
H          -0.40486043839170    1.44957123384909   -1.24937634165207
H          -0.73408002490808    2.72921110983167   -0.18396837451707
H          -1.41398561155575    1.19607066558641    0.09875432423906
H           0.28850522868521    1.43133635938176    0.31239556446122
