    26
        -50.46116086  Gyration_radius:  2.45249717699 Dipole_moment: 8.892
 S          -1.05686952462683    1.83792613054904   -0.17520778248783
O           0.41648183688402    2.02236749822302   -0.16825596114972
O          -1.34313695075675    0.40534685963303   -0.30311197062426
O          -1.68760681905338    2.43637661350586    0.95918851471265
O          -1.58262020982863    2.52143869472978   -1.47861444720911
O           1.44191835238394   -1.43451821444731   -1.75998840154352
H           1.82774405002258   -2.13677587526462   -2.28438386871054
O           0.23484039744976   -1.42940110871277    2.26945590865487
H           0.39522493886429   -1.74016023708134    3.16133381471453
O          -0.66017171558821   -2.15700100591476   -0.41465782286346
H          -1.07752481764060   -1.27569042956664   -0.48050690587269
H           0.60621014416968   -1.80115054766552   -1.35270879840888
H          -0.44392073986661   -2.25398418585504    0.52089139722322
O          -1.93740869750274    0.00486798557130    2.21635128696510
H          -1.97204352377082    0.93520054244902    2.46763888778144
H          -0.60603501623852   -0.88871942764995    2.31219169655542
H          -1.93265940389884    0.05941864577506    1.23742095411704
O           0.42996134963066    1.14998275998943   -2.68572598523103
H           0.68617250370724    1.56461108294115   -1.84551773096473
H           0.64009993351049    0.21261836748714   -2.58413441552696
H          -1.09728222116778    2.06704181655781   -2.18633151618982
N           1.76795657898292   -0.03136780086840    0.52828376756673
H           2.68719277283571    0.23634400986200    0.86300238834074
H           1.83280301980275   -0.58809469027233   -0.34989176055138
H           1.24442111475054   -0.57752618919692    1.24805921304827
H           1.18625264694568    0.86084869522274    0.28521951765587
