    26
        -50.46116091  Gyration_radius:  2.45253629773 Dipole_moment: 8.891
 S           1.77199351441433    0.98882731779917    0.63806258452583
O           1.02926529346063    1.75351658838604   -0.39556959463064
O           0.92553338174676   -0.11993878451131    1.09051631664335
O           3.05812698333293    0.56260473153988    0.18306644781587
O           1.94813455517133    1.94942198376698    1.85819956897761
O          -2.60717099583607    0.48807770555601    0.44698789840708
H          -3.54183592657460    0.41224328431266    0.64115793509774
O          -0.06434462039823   -2.14022496461961   -1.63255210675861
H           0.03886575888057   -2.76591810983051   -2.35055562681184
O          -1.23987387415688   -1.65159136006776    0.99822342694771
H          -0.43460613874229   -1.14823570106023    1.22944317385642
H          -2.17450363440784   -0.35386752868990    0.76718748380259
H          -1.00824538672421   -2.12148607367646    0.18770812586335
O           2.15078054115700   -1.99147798375173   -0.27250065814549
H           2.90663580050429   -1.45403062221879   -0.53658716134725
H           0.81200057785450   -2.12656050360950   -1.14980757116873
H           1.74053805777087   -1.43603521753237    0.42353235017481
O          -0.70274938067695    2.43943421175007    1.50932816466726
H           1.03740452329138    2.19529306146331    2.08848496866375
H          -0.19585067179137    2.41320486330694    0.68112361076670
H          -1.40707214012568    1.78739316536935    1.40020952986310
N          -0.82446756664078    0.45888525194994   -1.58603865593343
H          -1.03622659689202    0.87498942474793   -2.48644313348393
H           0.00461443437363    0.99243373075974   -1.11548842605586
H          -1.63276319786745    0.53813187251144   -0.93358577085753
H          -0.55418330112488   -0.54509035365151   -1.68410288088041
