    26
        -50.46116089  Gyration_radius:  2.45253254341 Dipole_moment: 8.893
 S          -1.04383301259545    1.58136603943809    0.96669170808962
O          -0.50865413875055    2.90629497525497    0.99877471444584
O          -2.54943948007706    1.62246244549712    1.38388243240547
O          -0.99006214265059    0.97146984140127   -0.36586251246417
O          -0.36614802795194    0.67236245894090    1.92545635521069
O          -0.50092094174714   -2.63395645546437   -0.21650155118769
H          -0.61235326778382   -3.53080030357260   -0.53315700215759
O           2.34339154319404    0.27116052567651   -1.29809953257599
H           3.24504234514066    0.46101523841839   -1.56015102287088
O          -2.31797059657821   -1.08444085064867    1.47414380496075
H          -1.56674711737665   -0.61295439877249    1.87018906393601
H          -2.82185405329925    0.69117665774297    1.34704165247167
H          -1.93379296910236   -1.65985809035286    0.80002758990764
O          -0.21939859304944   -0.87571956189691   -2.10889274921837
H          -0.48087582538111   -2.04182267858966   -1.02121133828746
H          -0.66106598059633   -0.16918851189471   -1.59809182370216
H           0.70090245937871   -0.59182655232654   -2.17084287637414
O           0.94923598259777    2.47009073441074   -1.29029578236385
H           1.86055276063020    1.14737114706390   -1.31399317559974
H           0.95109578267572    3.10330578723850   -0.56300368468561
H           0.10758704776604    1.99044194006703   -1.13903302549357
N           1.30851336934869   -0.95317916585602    0.88494454294018
H           1.78245000492875   -0.50595612042998    0.06887246413884
H           0.70945582105508   -1.73733784876744    0.55089810451877
H           1.98063350994580   -1.27151242293949    1.57458801210904
H           0.63425553027900   -0.21996483963867    1.33362562184548
