    26
        -50.46116093  Gyration_radius:  2.45254520287 Dipole_moment: 8.893
 S          -0.46856147136819    2.07075399218465   -0.13355667407017
O          -0.81132598355344    2.89597675497146   -1.41577837554182
O          -0.85362230239642    2.81528345204569    1.02411393132157
O          -1.17210340088131    0.78965604596198   -0.25366393778820
O           0.99232223036852    1.80906892150636   -0.17984540100965
O           0.88929749227189   -1.77619166039170   -1.81375630410074
H           1.03133947035047   -2.55569193140212   -2.35158189978135
O          -0.12263240933448   -1.46244801586357    2.25742331749189
H          -0.03018650671355   -1.81641176800248    3.14279305797347
O          -1.77144960315111    0.55231737131207    2.28514805176641
H          -1.51931997900919    1.44790230919976    2.53860864824866
H          -0.76308421219339   -0.69722487025551    2.33120222349808
H          -1.78469585841146    0.61484566175875    1.30677444933557
O          -1.28539310281360   -1.85817999181423   -0.39408790746632
H          -1.07631854307540   -2.02701555304352    0.53283087156843
H          -1.42368264617903   -0.89186790529056   -0.44308503895380
H          -0.00318703697600   -1.88295116923520   -1.37709623479849
O           0.66028989641812    1.00404889903528   -2.69793814967716
H           1.05645924822889    1.31321464308775   -1.86669056394191
H           0.58551083440422    0.04536304836601   -2.60602697203416
H          -0.50740076968443    2.32695281323497   -2.14151324269971
N           1.69575488975965   -0.56174577352243    0.46361589042010
H           1.39740447197502    0.46583224324123    0.24335654655874
H           2.66401214254537   -0.58315966025576    0.76484564376493
H           1.05863377493438   -0.93672912057511    1.20120802886247
H           1.56193938448447   -1.10159874625208   -0.41729994894736
