    26
        -50.46116092  Gyration_radius:  2.45252938702 Dipole_moment: 8.892
 S          -1.94558711839412    0.73027766532592    0.45463809750440
O          -0.91810071248262    1.80219697835065    0.44889019772097
O          -3.05946780636176    1.17910563280778   -0.54553546577218
O          -1.34580899927773   -0.48831619317875   -0.09836902014790
O          -2.52277523032608    0.53404025467760    1.74739154415554
O           1.55667117300573   -1.39166223807776    1.69970654120356
H           2.07169882708827   -1.70787855807227    2.44299204601160
O           1.55321893992886    0.22293927863896   -2.18478820843695
H           2.14688747054461    0.05739629908199   -2.91769351394043
O          -0.98070946536386   -1.69640348156971    2.19691870154811
H          -1.23693003037558   -1.44577911497296    1.28431425077081
H          -1.50111565850284   -1.08085143262175    2.72620020594135
H           0.59773295117711   -1.53380775205064    1.94760173446841
O           0.67458147340964   -1.93390615794415   -1.03278643934948
H           1.11625405693089   -2.06654915325495   -0.18500271827577
H          -0.18517278149871   -1.53061939162039   -0.80166998636748
H           1.22125634637988   -0.66650758540804   -1.87276313353041
O          -0.97571028091501    1.69521665163951   -2.21279845097664
H          -2.58042169494429    1.29993270279130   -1.38148012079392
H          -0.82871344404878    1.98837381583637   -1.29848768807132
H          -0.23410895426408    1.11111910372416   -2.41770337123949
N           1.50380043673815    0.98844087129484    0.40807922732677
H           0.46971224594443    1.33286020981500    0.48207692626390
H           1.59174470747095    0.09807028073145    0.94663255384730
H           1.67971719168651    0.80161726147502   -0.60165520042981
H           2.13134635645190    1.70069404258136    0.76529128057017
