    26
        -50.46116093  Gyration_radius:  2.45254859245 Dipole_moment: 8.895
 S          -1.17587524159464    0.52703022381893    1.69253818337019
O          -1.75695449885396    1.93137884758253    2.05703068676752
O          -1.83404699991018   -0.47327157484409    2.47293360505179
O          -1.36909247544291    0.35013918296316    0.24963195973629
O           0.28225625888504    0.59138833404033    1.96537374204549
O           0.34801365194304   -2.50985519468524   -0.91012134126032
H           0.53665718971766   -3.44286778700130   -1.01779203094158
O           1.51649022996305    1.45776557640884   -1.67628496709481
H           1.94394604493641    1.83206094524600   -2.44710094892824
O          -1.91370473004387   -2.21022179783432    0.34414563244559
H          -2.00704960129853   -2.26496212618376    1.30235862071349
H          -0.52600983354545   -2.45864319314719   -0.42569118002071
H          -1.92117592010430   -1.24120664409820    0.19482867504050
O          -0.52208572750055   -0.05415917779722   -2.23297467928518
H          -0.29153911113298   -0.98454406511511   -2.12046170251800
H          -0.99645900054620    0.18276983857119   -1.41196762337733
H           0.71003339204380    0.96539305463272   -2.00145366696790
O           0.32976342910309    2.87476659499023    0.59279586793871
H          -1.24941776613815    2.54086940570922    1.49689400541741
H           0.56635243615685    2.14430333057910    1.18767541149390
H           0.60129682564248    2.58686297513480   -0.28839661163249
N           1.77076686535026   -0.48390901121426    0.18833040818108
H           1.13010392120930   -0.07490666373937    0.97293780222948
H           1.86363138904687    0.26175797869109   -0.53329650938925
H           2.67364818270926   -0.73540957179544    0.57598446838409
H           1.29045104940417   -1.31252948091239   -0.22791779740004
