    26
        -50.46116091  Gyration_radius:  2.45251920428 Dipole_moment: 8.889
 S          -0.72847411664320   -1.14164766989285    1.63973863986790
O          -1.12322751949125   -1.71155452466260    0.32669069521767
O          -0.15116878793269    0.18717650852637    1.41235767568342
O          -2.05074232097477   -0.92770785408423    2.44494654014494
O           0.13670710006723   -2.01018467291829    2.37456634488715
O          -1.22039953920547    1.63858917849802   -1.74877736487118
H          -1.45309729891147    2.36587651152033   -2.32660983696951
O           2.55569077861991    0.01568800869189   -0.84848223295378
H           3.43367643425777   -0.21001379949373   -1.15818610530919
O           2.35176854602547   -0.53357708276401    1.68839020545917
H           2.53820951976591   -0.21502831048720    0.12493909106576
H           2.17317801445078   -1.41631242849374    2.03308178852316
H           1.47156148611564   -0.10708040627233    1.75717784089820
O          -2.94153871082848    0.22846670256902    0.15220305247712
H          -2.48763744716465    0.89729043720408   -0.37673916718493
H          -2.44558348426701   -0.59439355967980    0.00930729388751
H          -2.57514386877372   -0.34486324078198    1.87204097437900
O           0.72623203964855    2.17423693702025   -0.11290885066124
H           0.37351071598906    1.59217049290149    0.58852453549937
H           1.53883279428030    1.74136745513173   -0.40212477405770
H          -0.52347551577354    1.97918866669340   -1.11894285512935
N           0.09163115669261   -0.72535926601482   -1.69362600937847
H           0.06738932061436   -1.36632454939396   -2.47931141252556
H           1.07236820074752   -0.47571244008845   -1.43550181949632
H          -0.44494790051291    0.14389670006835   -1.89820701679719
H          -0.38531959679514   -1.18418778379518   -0.82454723265492
