    26
        -50.46116098  Gyration_radius:  2.45264597804 Dipole_moment: 8.898
 S           0.44602266696924    1.06025043882544   -1.78978941402362
O          -0.69162891231232    0.90243641435028   -0.87789031982746
O          -0.08805717915607    0.77756151347509   -3.23115832961100
O           1.02102643781088    2.36807423508709   -1.74741709624578
O           1.43648449790521   -0.00513646196836   -1.49194728881009
O          -0.93675497541632   -2.48090294788274    0.44971710410250
H          -1.41270310614951   -3.24280136217492    0.78131553982457
O           0.37854712748387    0.95464330244028    2.48926421831533
H           0.72590207528423    1.33037150478823    3.29909718648667
O          -1.95923859455725   -0.20474375856335    1.17418505345162
H          -1.68307236602341    0.24774392683309    0.35304920901535
H          -1.45752541463821   -1.67227352213066    0.72083722141617
H          -1.42280652702229    0.19993058300021    1.86693050788060
O          -0.37073016224253   -1.77264738483325   -2.33396675423741
H          -0.78762918275975   -2.05890951358180   -1.51100745551637
H          -0.44330784583542   -0.12409515310680   -3.17048427152849
H           0.46426370475808   -1.35332998163126   -2.06849164219383
O          -0.02853470048352    2.84641651252432    0.74753797350733
H          -0.48331923771575    2.24015896193758    0.12542344383686
H           0.66381549543989    3.22099438844019    0.19053837273978
H           0.24359586548062    1.72360559884632    1.86343441120355
N           1.29102671462912   -1.00359112097552    0.85580768712250
H           0.99924496818406   -0.27043619273809    1.53982339664686
H           2.17154204936677   -1.43009305133627    1.12319943743288
H           0.53641064936570   -1.71675674105999    0.76893040514702
H           1.38742595163732   -0.53647019856401   -0.12693858613781
