    26
        -50.46116096  Gyration_radius:  2.4526196718 Dipole_moment: 8.896
 S           0.42702125362386    1.78097077842979    1.08218113042078
O          -0.48147144275320    0.86668129851129    1.81940170119094
O           1.68068894306656    1.95752206507199    1.74551328139563
O           0.56767493259713    1.28526384005240   -0.29083304370494
O          -0.30779588786060    3.15742734949399    0.99215202566053
O           1.70875561423243   -2.05727508542145   -0.31305660640274
H           2.32679576364491   -2.77960254734695   -0.19487815400855
O          -2.20619790780600   -0.85796769000333   -1.27714143159633
H          -2.82276322894480   -1.23207926663360   -1.90712415205106
O          -2.43285107597060    1.66484232685356    0.18986892361041
H          -1.14285735846137    2.94187400227702    0.54588537644096
H          -2.43903507094857    0.97599133764425   -0.48728111240273
H          -1.94774589608207    1.28492416729492    0.94074582420689
O           2.93571772042783    0.21309440687043    0.03144541772055
H           3.11330560061090    0.60131574535526    0.89611624996439
H           2.15894681613073    0.73126008455660   -0.26774085909227
H           2.23406323689677   -1.21789000487814   -0.16970486964172
O           0.17825368732270   -0.47708228335053   -2.23687506091833
H           0.34243940745580    0.30640361031093   -1.67615469791763
H           0.78674506954670   -1.14723266369192   -1.90214763547512
H          -1.35532647752759   -0.68386815586286   -1.77129664598323
N          -0.66867565063492   -1.49226244926071    0.85477063322310
H          -1.37444693805232   -1.38796666320620    0.09550052174610
H          -0.54376241412560   -0.50128236305256    1.29706441633413
H          -0.98257560633909   -2.14861352475351    1.56145370606166
H           0.24509690995127   -1.78444831525938    0.44213505121593
