    26
        -50.46116097  Gyration_radius:  2.4526589404 Dipole_moment: 8.895
 S          -1.85965298761916    1.00290667714095   -0.24652115576416
O          -1.22637517079316   -0.23750888780353   -0.70594449827033
O          -3.24981207567322    0.60696903960616    0.34791879955534
O          -1.06027637799855    1.54751479612706    0.88003437123664
O          -2.04859121111533    1.95683198184791   -1.29396290115639
O           2.14632417744404    0.32443439009879   -1.59354054866889
H           2.87773054053265    0.66341334420069   -2.11106728533057
O           0.88897903201550   -1.73789464732748    1.85056226219579
H           1.29922947985421   -2.47403296016561    2.30530190285062
O          -1.77441108060039   -0.60093173639952    2.28450939057258
H          -1.44988979112713    0.28036480400946    2.03629142918718
H          -3.02634190818085   -0.02446880072279    1.05100609695278
H          -1.02362068285624   -1.19572846613222    2.15986269443479
O           0.70144784383058   -2.06185960203690   -0.72073300813048
H           1.35959708719703   -1.52358152817975   -1.17728757249103
H           0.79911701144961   -2.00247266850444    0.89114975475547
H          -0.12589202578983   -1.54540931220664   -0.78438407086979
O          -0.09517750293833    0.78707033450477   -2.83453680740731
H           1.31885766957003    0.52976092116895   -2.11731157480686
H          -0.55868739233712    1.63226227140950   -2.80803161955210
H          -0.61285277117969    0.25164313458362   -2.19671945613073
N           1.37262597552182    0.77007828225248    0.96343986058429
H           1.74090366915824    0.63970720825692   -0.00510223712133
H           0.34893916352153    1.14468625812195    0.89339495078162
H           1.31472251648880   -0.15484979451153    1.43961983010961
H           1.94310680162364    1.42109495066413    1.49205141248794
