    26
        -50.46116091  Gyration_radius:  2.45252212532 Dipole_moment: 8.890
 S           0.67395816956615    2.00629334809958   -0.20912601297925
O           0.55706511849939    2.93148826248736   -1.46325615217068
O           0.98706041522354    2.80125736255772    0.93667379336014
O          -0.60369267123501    1.29709661598299   -0.08525293112279
O           1.73327005511939    1.01245815960424   -0.51707529008170
O          -0.57572893063119   -1.91340907852749   -1.80052386757498
H          -0.97906507692438   -2.63091077803601   -2.28995736146013
O          -0.39997816160596   -1.25098366072330    2.35057625886779
H          -0.32355239524538   -1.62975040904937    3.22712713159747
O          -2.11940465000240   -0.87935609290221    0.01613344800276
H          -1.84326860855701   -1.16527542744436    0.89554473893234
H          -1.73586561830563    0.01401066650700   -0.08379988891852
H          -1.27787274567862   -1.54595752813367   -1.19188128345222
O           0.51226298379365    0.59334494033533   -2.84807524328493
H          -0.03409276279689   -0.18190613800973   -2.66487485983698
H           0.35853616688621    2.31332622684876   -2.18533184347598
H           1.17502431685013    0.61607400524050   -2.13837127185469
O          -0.69937978702878    1.32897913423134    2.53222750166131
H          -0.87800012842879    1.42215173785887    1.57265619415015
H           0.03073368523170    1.94582140861996    2.66002088144216
H          -0.51257560427918   -0.26579577503917    2.48408510331727
N           1.20054001005426   -1.39038117189344    0.17025361134815
H           2.05055550215276   -1.93294816884381    0.27899756379108
H           0.63089414017620   -1.39493019988978    1.04560248281944
H           1.44903353056224   -0.35445522502921   -0.07157282656520
H           0.62354302660449   -1.74624221485198   -0.62079988651205
