    26
        -50.46116095  Gyration_radius:  2.45250849399 Dipole_moment: 8.891
 S          -0.32539674217017   -0.08129894797958    2.10016837013253
O           1.06653444025660    0.30052208497478    1.75151379083762
O          -1.02530120838542    0.96445703611082    2.77792902504564
O          -1.00223894462583   -0.52822502811953    0.87833917487404
O          -0.22086378407060   -1.32597534038570    3.03947962682106
O          -0.87504012536936    1.96745330614802   -1.61702999520888
H          -1.07495739732865    2.80360404728051   -2.03961087507852
O           1.34375403392296   -1.60657170093491   -1.68710264016290
H           1.61812287089748   -2.14254545450357   -2.43172028214160
O          -2.37577241693438    1.66785922794577    0.48927436639170
H          -2.18417183709205    2.06838802519981    1.34529304226022
H          -2.07850251520867    0.74367083593880    0.62671773470319
H          -1.47845145650600    1.90900500756394   -0.82100241517961
O           1.50697335097899   -2.26014595820674    1.16113284142677
H           0.27378261586343   -1.97147987811717    2.50879140411040
H           1.37079052248361   -2.28361102714067    0.20509207117580
H           1.63614430308343   -1.32283487485020    1.38082132181562
O          -1.16696396607111   -0.93881029748311   -1.73858040986465
H          -1.26436302533237   -0.01223747848936   -1.99016288746500
H           0.35633021888476   -1.47764854596558   -1.76985938674829
H          -1.24668542052956   -0.93907698813480   -0.76448713532506
N           1.44383812020804    0.90946057158894   -0.70137608634548
H           1.57123245889052   -0.01547363870539   -1.16362367062603
H           2.26824065451574    1.49063724724041   -0.80778252004305
H           0.59465852469514    1.37772183424640   -1.08910975590077
H           1.26830675494484    0.70315592477884    0.35689529049469
