    26
        -50.46116095  Gyration_radius:  2.45254089633 Dipole_moment: 8.893
 S          -1.94026563975306    0.23567261527740    0.83955255770169
O          -1.35339716349103   -0.21277209767839   -0.42740094377490
O          -3.01554648928861    1.31237970803650    0.48301454725014
O          -2.55741150637663   -0.82195157357430    1.57670730733195
O          -0.88887491606604    0.93414445870191    1.62150140813907
O           1.61799892794863    1.69233721080950   -1.32386592485349
H           2.22827657731956    2.09317940238676   -1.94346241582937
O           1.47681563547179   -2.24666490210087    0.14588013504134
H           1.96364204926791   -3.02358991170692    0.42343080549908
O          -0.87523985024101    2.80782665030352   -0.27280669159971
H          -0.14186315796192    2.53265679877830   -0.83808253053155
H          -2.51102347970598    1.98837456671120    0.00205972100451
H          -0.74686404373676    2.33452653242261    0.56564518488732
O          -1.07976337584110   -2.72647015672260    0.25609478152601
H          -1.60044294879675   -2.67457571804525    1.06608187826990
H           0.50833241382305   -2.49023203093963    0.20864033369883
H          -1.30471922052964   -1.87967427123019   -0.18397181812388
O           0.65875844602378   -0.58856000566716   -2.11687613068403
H           1.25723653356511    0.86984001463613   -1.76195357838665
H           1.07370508782394   -1.31427228192471   -1.63461366913077
H          -0.19763024617868   -0.45157980643038   -1.66623669117190
N           1.51406791453784    0.32178170730935    1.00467145780136
H           1.71367521652082    0.92582072639905    0.17960831532169
H           1.56662530636346   -0.68197226989504    0.72133609987646
H           2.14746801159719    0.52394695055787    1.77060235723347
H           0.48643990770407    0.53982766358597    1.30444347350368
