    26
        -50.46116096  Gyration_radius:  2.45258959762 Dipole_moment: 8.894
 S          -0.69946044130244    1.85556071957368    0.76936175650842
O          -0.06224773582398    1.35884676147743   -0.45459077164473
O           0.15503628746266    2.70119320962250    1.54238208597599
O          -1.96131657246601    2.66383563014405    0.32542311462742
O          -1.19730594039809    0.69077092628258    1.54405075021219
O          -1.22140060110996   -1.97048796838391   -1.36328848415934
H          -1.44253472030602   -2.66523390314583   -1.98410636966231
O           2.50157611810143   -0.94823244787045    0.30736476926720
H           3.34794465347514   -1.24838978807714    0.64093535258571
O          -2.91117384331328    0.23694773798684   -0.44506530577850
H          -2.48323364305987    2.01577632900148   -0.17519173946809
H          -2.45123877854459   -0.42750676319056   -0.97420485424076
H          -2.47028121214131    0.22866253820470    0.42041248766374
O           2.40773104967916    1.65293385980435    0.36571788739503
H           2.52500953371030    0.05100794762701    0.35362266582503
H           2.19970055643138    2.16462279142114    1.15615099631767
H           1.55791543413256    1.67970366516649   -0.12274038201060
O           0.83882401065644   -0.55014668930002   -2.06340282124798
H           0.49343767938743    0.26301691219043   -1.64540382969247
H           1.60853746860152   -0.78840130762520   -1.53221738239063
H          -0.47309293629416   -1.44635496187781   -1.76800794722262
N          -0.04278243255549   -1.53029968382063    1.03014666424140
H          -0.14659766501240   -2.17970089519225    1.80229532549343
H           0.96315590567189   -1.36718520176950    0.80174734974974
H          -0.54046127293358   -1.87058570127608    0.18041575636757
H          -0.49574090204914   -0.57035371697285    1.28819292528773
