    26
        -50.46116093  Gyration_radius:  2.45256272939 Dipole_moment: 8.893
 S          -0.70267137334927    1.74130373745232    0.99920247563371
O           0.38152867547140    2.03696959849186    0.02870724749388
O          -0.32032255332016    2.02172172031951    2.34755876130908
O          -1.91033711790669    2.65159253183636    0.60483066880430
O          -1.13526938184686    0.35412806143208    0.80079986006316
O          -0.30864667049600   -0.89076197099151   -2.51909873550694
H          -0.45589470543066   -1.42811298530698   -3.29792235839564
O           1.58854592802071   -1.87205115583738    1.10522778116788
H           2.28803885999943   -2.35568702101635    1.54622782506153
O          -1.42201388501046    1.74672610855955   -1.91112648274998
H          -2.09032502428073    2.40541653731194   -0.31705599275890
H          -0.61998489867402    1.98459706654405   -1.41753947257768
H          -1.29233325349824    0.82971582688108   -2.18570272954906
O           0.12436004549262   -0.64024897635894    2.87092873280840
H           1.06346150271245   -1.42359168999523    1.82936815409385
H          -0.53773482618877   -0.36958458591444    2.20033423856461
H           0.36219881253132    0.20526328807545    3.26898858595118
O          -0.97083207791350   -2.05810243570683   -0.29398608532420
H          -1.23047655414655   -1.21986368281078    0.13625437934534
H          -0.66737399519429   -1.40359190086644   -1.74008828372051
H          -0.18261312708049   -2.34282996681236    0.18456630708084
N           1.63325937631798   -0.00671191991438   -0.85793487254040
H           1.13432112545127    0.86837488704147   -0.43526746225706
H           1.02276076998824   -0.34865488858088   -1.62980058953286
H           2.55150886555829    0.25213462517345   -1.20224325822654
H           1.69684547279308   -0.73815081900630   -0.11522869423794
