    26
        -50.46116094  Gyration_radius:  2.45264857395 Dipole_moment: 8.898
 S          -0.23837472175435   -0.12019749960318    2.11088065792417
O           0.49985207304782   -1.07156539921283    3.10715392531245
O           0.75001712356752    0.90997735976152    1.70263144600642
O          -0.58190639156345   -0.92390913558584    0.93334292655650
O          -1.38132812513756    0.44482756298573    2.75684232635863
O          -1.77058120709420    1.12614052245924   -1.68722632821220
H          -2.37822142826109    1.70572033798634   -2.14816041736290
O           1.98694635149157   -0.76291299598439   -1.64465944959429
H           2.50066422115574   -1.11790548527368   -2.37064513761674
O          -2.89670296794698    0.21332538250050    0.47535823186676
H          -2.16258957411920   -0.41287019878629    0.64948619757143
H          -2.25572669872657    0.80934908818932   -0.87150175343436
H          -2.94179171306659    0.70323458418186    1.30470227251258
O          -0.50291864163509   -1.50578566474107   -1.65497062461526
H          -0.57213036602092   -1.49310459875786   -0.68013575844552
H          -1.06872499139232   -0.78098651629273   -1.94818514545287
H           1.07738826266217   -1.17244780592317   -1.70452836576183
O           2.46283315088295   -1.07469437272373    1.22675416083252
H           2.36126577802058   -1.21997588902940    0.27722496376621
H           2.08258092479373   -0.19704866985795    1.39602100075707
H           1.25871542197192   -1.39457285236056    2.59473502505446
N           0.75807285597772    1.48749647837944   -0.78661749040663
H           1.35035649036889    0.74016890603885   -1.20637475009859
H          -0.20983616631497    1.42190776680673   -1.17311669991068
H           0.71398719014596    1.27969956075241    0.28492325161904
H           1.15815314894667    2.40612954409069   -0.94393447522620
