    26
        -50.45289445  Gyration_radius:  2.64834024407 Dipole_moment: 2.979
 S           0.60772503697213    0.11080312120934    0.53068536383902
O           0.35553730573713   -0.83000497918108    1.58052392631066
O          -0.54552158330867    1.13114612861326    0.46870253310596
O           1.85259606882233    0.83541083396787    0.61389557804050
O           0.53994081745200   -0.61747696922844   -0.80741820617641
O           1.09474480714793    2.90096005925486   -0.96156379030543
H           1.51145849270793    2.36473570759989   -0.26540969818483
H           0.17451590216008    2.98776774816712   -0.69997973360831
O           3.79000450790946    0.32803604913536   -1.21912814517231
H           4.23911105793187   -0.49084739625273   -1.00553288059869
H           3.24799892088937    0.56064914168191   -0.44379945232468
O          -3.67050284819930   -1.07532878516081    1.11092420101250
H          -4.09196658084106   -0.63946937073274    0.36884680179314
H          -2.96858514040004   -1.67207108352416    0.73272604808824
O           1.52754975561596    0.83031694448945   -2.56232964363398
H           1.35379269887439    1.72847661372550   -2.19068122871473
H           2.47346977388782    0.65981043057868   -2.37038658014803
H           0.92493386932222   -0.01563874825725   -1.60812288439500
O          -1.94740106826694    0.42929120871276    2.40346320994085
H          -1.29819961179144   -0.21953147669982    2.70393000321116
H          -1.18750504582702    0.92503097779653    1.26537313935210
H          -2.69905169959466   -0.09609386805028    2.01449115162973
N          -1.57722744824824   -2.43556678427519    0.15252179402662
H          -1.53606349339479   -3.43987316339916    0.27738928260000
H          -0.83882289025085   -2.02476463520928    0.72116963171178
H          -1.33253161533061   -2.23576770494694   -0.81029043140975
