    26
        -50.46116095  Gyration_radius:  2.45261917485 Dipole_moment: 8.894
 S          -0.20014862154886    2.11325703040360    0.13571276931504
O           0.43557263020027    3.19865427849877   -0.79193075634703
O          -1.24782764742837    2.70579938418671    0.90651850224036
O          -0.66938955847340    1.03214670264224   -0.73712310704237
O           0.90011413452218    1.58720121421392    0.98269151621033
O          -1.65526293921158   -1.77992460701294    1.15928758520904
H          -2.19488237510328   -2.29205327418673    1.76281525355856
O           1.83523550039995   -1.57274120601797   -1.18000951211720
H           2.28295095657209   -2.26164286073972   -1.67190077297342
O          -2.83563793802030    0.47889333677656    0.62729094098370
H          -2.15691394662136   -0.93029317055275    0.99309796518360
H          -2.18002999603152    0.71225515180310   -0.06348890495577
H          -2.80142162198799    1.25111924373599    1.20380070369466
O          -0.72796716865404   -1.47839140853919   -1.59629734995573
H          -1.20575005942985   -1.84268418574779   -0.84106947294919
H          -0.77143444966001   -0.51004029572749   -1.47123531311309
H           0.88036290209814   -1.57910696487267   -1.47434181566927
O           2.33756760502370    1.31072444903741   -1.24383964220285
H           1.13593619320046    2.71653574386393   -1.26094162138915
H           2.07548412884809    1.38799180783066   -0.31172177271830
H           2.19506517958588    0.38375012976646   -1.47495786316566
N           0.91957534144236   -0.94999213982265    1.28685910126314
H          -0.05814879955059   -1.31661968679249    1.30472455494640
H           1.40275254905778   -1.29260097578435    0.42973247982688
H           0.87617621495935    0.13816220248031    1.20138051862320
H           1.42802177581055   -1.21039988944355    2.12494599354379
