    26
        -50.46116095  Gyration_radius:  2.45255230432 Dipole_moment: 8.892
 S          -1.05624857322494    1.83865453187169    0.16562457505746
O          -1.40126972822922    2.85224340772849   -0.97284880734417
O          -1.85732769950072    2.12711451133504    1.31364234595870
O          -1.29089582885650    0.49645661286787   -0.37671458673867
O           0.39635706216485    1.98740517015966    0.43513678131790
O           1.71026807488045   -0.94521609385739   -1.84792809249860
H           2.18379070285610   -1.49277361142900   -2.47478572901564
O          -0.06833760364567   -1.98277835121306    1.82058970287651
H          -0.03155509270112   -2.51809030665554    2.61418278420247
O          -0.55008244385626   -1.95817631600927   -1.06242369050033
H           0.83187645701089   -1.39040454632169   -1.67852850885930
H          -0.47049688346391   -2.30447823184411   -0.16516226456375
H          -0.97051250046945   -1.08282759548742   -0.95195393517879
O          -2.23936372107370   -0.54560551482772    1.83129046143272
H          -0.91772471060455   -1.45737765408947    1.88081077727838
H          -2.09211657368689   -0.23296161528115    0.91370404600086
H          -2.33038969814300    0.28493205698163    2.31276859251518
O           0.79280503764762    1.81266286610490   -2.19403405623612
H          -0.80867174360557    2.59272096814466   -1.69700000075243
H           0.91659256097768    1.98506413038778   -1.24617640250666
H           1.00382060368863    0.87782184588244   -2.31502720785908
N           1.67212246174463   -0.20387640006068    0.75224901085099
H           1.06048828288369   -0.91068903085791    1.21810421429471
H           1.87440307051976   -0.50952747477025   -0.22300050156493
H           1.11472230284129    0.73215769601575    0.67205645907372
H           2.52774620384613   -0.05245106477600    1.27542400275951
