    26
        -50.47206681  Gyration_radius:  2.43971884468 Dipole_moment: 6.620
 S           1.40038305836065   -0.80869277361429   -0.24247355733213
O           0.61663328436640   -0.23647761001435   -1.35858723348880
O           2.43166256136202   -1.78844192668111   -0.88462452806772
O           2.12164581802437    0.24954360676360    0.44241285901013
O           0.55961871014620   -1.59542823906643    0.63336950725975
O          -2.91330230467915   -0.15420384679017    0.36132506951832
H          -3.85220945107324   -0.34266153419228    0.34741909448936
O           0.44888789006557    1.79783533948333    1.82483721087510
H           1.22647613123147    1.32192265126492    1.46538639098282
O          -1.51813848141664   -1.94909389598095   -0.94263462349383
H          -0.81549872400603   -2.07673312093348   -0.27241153570029
H          -1.05366843177908   -1.48654921294768   -1.64988405454113
H          -2.46597933093410   -0.89737461292738   -0.13120601868156
O          -0.97956449881111   -0.33749015474605    2.48303902958604
H          -1.79742047920503   -0.30725338037170    1.96864033909884
H          -0.38361517102066   -0.92569762338650    1.98672867584533
H          -0.04273543266819    1.11412720534559    2.33784051081032
O           3.21265411861870    0.47880606150332   -2.00546717079109
H           2.98850132325147   -1.20225372840980   -1.43240748485115
H           2.30372455497314    0.51930915927713   -2.32545812034790
H           3.16267320112577    0.75620300104084   -1.07775263576469
N          -0.95112129419227    1.59837257549030   -0.32494192426048
H          -1.12510121554415    2.42454028291254   -0.88618641295879
H          -0.33627883555630    0.90253328559165   -0.83761808073536
H          -0.40404659568005    1.82984130631254    0.59638300577757
H          -1.83418040495959    1.11531716507315   -0.07572830223901
