    26
        -50.45289446  Gyration_radius:  2.64837471725 Dipole_moment: 2.979
 S          -0.60204416019988    0.24923316811101   -0.48899206259718
O          -0.78155598757789   -0.81935073321023   -1.42533716816808
O          -0.60458282720336   -0.32929609372833    0.92203192766846
O           0.80982656411794    0.84432474345691   -0.65480000613336
O          -1.56087712519203    1.32481323043752   -0.56248060695279
O           2.99452890848718   -2.30397042051526   -1.26024586335789
H           2.19218727193434   -2.60295999111585   -0.75152696422465
H           3.61590977846263   -1.95809266063304   -0.61787829594748
O          -0.01648754270743    3.17779525099787    0.66437081079177
H           0.84704630040847    2.93786147087262    0.31857759468995
H          -0.65916008451918    2.74009692670795    0.08026297437319
O          -3.32637755570582    1.64878325509717    1.47434313056168
H          -4.02946023225935    1.00150682260906    1.40653499050323
H          -2.83561247884593    1.61820486550799    0.63337373927509
O           1.68359853072590   -0.45580382754980   -2.59059443670577
H           0.83397547726144   -0.88626040947091   -2.75041516623631
H           1.25646652116288    0.36613263709443   -1.46787139555239
H           2.27535276220790   -1.15544343796063   -2.19994631526410
O          -0.87652719739241    1.52191807370662    2.55006363582403
H          -0.47806789083467    2.27578230006982    2.05216588891218
H          -1.84441222500736    1.64784234604056    2.46053263251147
H          -0.68503562149385    0.43883462386299    1.66696847236592
N           0.71189151294712   -2.81694828788488    0.03494499243909
H           0.07566346400000   -2.24683963693147   -0.51959514411690
H           0.65780753108455   -2.45683104253968    0.98055458178262
H           0.34594630614436   -3.76133319303587    0.04495807354953
