    26
        -50.45305794  Gyration_radius:  2.45621628456 Dipole_moment: 10.321
 S          -0.77543066827949    1.70174198516377    1.03369650103561
O          -1.59119418983479    2.72018091247229    1.59827845385154
O          -0.69995823349153    0.44879413246478    2.00587614764404
O          -1.24986956848813    1.16753011359069   -0.24774508943398
O           0.65795070981156    2.05404759354976    0.91865107496018
O          -0.16219875204692   -2.37088310888510    0.53594854118085
H           0.00235692429686   -3.28953585255608    0.31914315339515
O           1.67194485739372    0.05680329528506   -2.21499078215703
H           2.27504200536592    0.10886408707015   -2.95682254776933
O          -2.42937816775189   -1.54255431761301    1.89356189490188
H          -2.44167143497674   -1.89222792632853    2.78640118229383
H          -1.52284065768643   -0.07870519717829    1.93556585746532
H          -1.69327963439145   -1.97752061634646    1.42558355076529
O          -0.84297250805519   -1.07677626025004   -1.58081204356655
H          -0.03861921235289   -0.79941622780349   -2.04211771413027
H          -0.49435042995705   -1.93904572818741   -0.31268837061388
H          -1.17635352727033   -0.26380647751085   -1.14120860447035
O           0.49953557042954    2.33369590991974   -1.79908694344328
H           0.93727510107102    2.75747540396333   -1.05107028031764
H          -0.31861017252147    1.97124935656156   -1.38838021486361
H           1.23998330284289    0.96186563135027   -2.13850775527228
N           1.64771852120545   -0.23444001346944    0.48886494458418
H           1.81111500593753   -0.24546329260562   -0.53810917449054
H           2.51170095006527   -0.37392043639794    1.00187826662536
H           1.22355867285184    0.76851960538366    0.73327747698097
H           0.95854554583000   -0.96647256163894    0.73481247483492
