    26
        -50.45305795  Gyration_radius:  2.45620291085 Dipole_moment: 10.324
 S           0.13813115200875   -2.12282507980870   -0.20097747510681
O           1.06876221549022   -1.25209939188084    0.52586304491473
O           0.34905048571660   -3.51635885473323   -0.01353220672671
O          -1.30684961316247   -1.70711762993347    0.30897567522286
O           0.06986897431495   -1.69539042907025   -1.61676497439719
O          -1.56500483453158    1.35756643551765    1.28298444362286
H          -1.86710079245229    2.21012863900216    1.59901728235796
O           1.49994669579056    1.87307196568978   -1.39606288207205
H           2.00414884671401    2.49288227693748   -1.92364955282374
O          -1.77159294571527   -0.95314120053028    2.79580029010482
H          -1.76231353361243   -0.06831919703225    2.38709616006534
H          -2.69011758128376   -1.18584902223583    2.94340877759060
H          -1.31018502693501   -1.64305123664554    1.28682331241222
O           2.53100879618400   -0.50501441676630   -1.50632043674068
H           2.00299983877107   -1.02457302037305   -2.12452883487836
H           2.20156389805272   -0.81701480957010   -0.63255191409183
H           1.97661063790392    0.99004381571682   -1.46589334967931
O           1.00578442916657    1.26482740915626    1.32544817470645
H           1.10840620799554    0.29590047300438    1.19865631373923
H           1.34152029071345    1.66084145245146    0.50878640574333
H          -0.56272058747936    1.35787588408754    1.39420803364702
N          -0.91212818647034    0.61981015789154   -1.33867487892839
H          -0.09054078288077    1.25055865345860   -1.43406725039909
H          -0.53170589394491   -0.42082619285222   -1.47118150731808
H          -1.31317574056567    0.71903678238498   -0.38971255715131
H          -1.61436696978549    0.81903654613549   -2.04315007381795
