    26
        -50.45305794  Gyration_radius:  2.45615413445 Dipole_moment: 10.325
 S           1.12083671968629    0.83411949633450    1.61730848533473
O           1.10465007989091   -0.57081480295285    1.19479349986810
O           1.37034185224257    1.66638969227093    0.28860369940783
O          -0.25498757051814    1.25934876457412    1.96103270952211
O           2.10066009072371    1.15529601497286    2.59618749545625
O          -2.34225579655903   -1.47209725818436    0.22551156313197
H          -3.16879626804311   -1.94276557333794    0.33554583427230
O           0.29492389517411    0.24408332895830   -2.40635724477075
H           0.04805739070354    0.02390477676157   -3.30556912457475
O           2.90835905154038    0.78275147562363   -1.66653733296027
H           2.04705613143333    0.56836238470222   -2.06932274850957
H           3.22765399814966    1.58064119810980   -2.09202215323235
H           2.10364228142836    1.26551294083888   -0.22324989698611
O          -1.05260212851400   -1.30880388694639    2.47079647980444
H          -0.15002152273942   -1.24224501134500    2.08310337331850
H          -1.89243250152916   -1.47806936563879    1.12513724814256
H          -1.19193506573022   -0.42254199913210    2.82564662358122
O           0.21264825428555   -1.86170417215482   -0.93078728363965
H           0.69471174837169   -1.50027944332807   -0.15472896180765
H          -0.69679067320145   -1.98614860547490   -0.62409618437237
H           0.31532404708993   -0.62842930586435   -1.90098255371772
N          -1.37458118966656    1.01517896731738   -0.29461252074232
H          -0.65722148947094    0.94073293240576   -1.03696801451233
H          -0.87290960121900    1.17803110017050    0.68892437792484
H          -2.00581309552320    1.78553368468547   -0.48746446991942
H          -1.88851862795318    0.11401266664420   -0.21989290003127
