    26
        -50.45305795  Gyration_radius:  2.45624058132 Dipole_moment: 10.320
 S          -1.22554633951265    1.26183019471892   -1.21265611260010
O          -2.22743553214607    2.12659154989614   -1.73213899829652
O          -1.66999181515978   -0.25497260393922   -1.36260747640816
O           0.04249752435586    1.25930091721967   -1.97676998547493
O          -0.93361738430445    1.43885466365624    0.21424698785840
O          -0.40089301751104   -2.25816749555732    0.82130801647614
H          -0.13638604711972   -3.01578325501725    1.34483809471468
O           2.59854188414316    0.54023917978978    0.81315071812333
H           3.50564146381043    0.73917049466474    1.04632256652077
O          -3.05106554272035   -1.52160501044285    0.49683053824107
H          -3.53648842377841   -2.19186567843468    0.01233849269379
H          -2.17453460513769   -1.89511936984132    0.70216712845798
H          -2.32243297025201   -0.48232834125757   -0.66770127720906
O           0.14637617357444   -0.08399827218456    2.08326815537741
H           1.06996690082724    0.14709331660774    1.90950505578808
H          -0.37842996504800    0.53196253635282    1.52600817677959
H          -0.23065101894534   -1.44794527398385    1.39709347742834
O           1.36318868713799    2.65998832862815   -0.03090829175618
H           2.18360073247101    1.41061909529636    0.52711382375948
H           0.45595151888443    2.37844377829002    0.22801986243623
H           1.32757948412171    2.61514926114466   -0.99396082013783
N           1.13105971653719   -0.81884673299314   -1.02914419204893
H           0.63205663378208    0.06642009565077   -1.49046473858534
H           1.81976363961901   -0.44788378625116   -0.34379603253829
H           0.42466870808927   -1.38900944016387   -0.53189552186671
H           1.58657958428252   -1.36813813186125   -1.75016763773518
