    26
        -50.45305797  Gyration_radius:  2.45620180632 Dipole_moment: 10.323
 S           0.19541741538430   -1.43198144270446   -1.57359604185329
O           1.53366626647215   -0.79862492404536   -1.58221660043363
O          -0.20591605695570   -1.70309114030688   -0.18868060210648
O          -0.71502235800212   -0.21861941987957   -2.04183930903341
O           0.05596734058577   -2.53077047240579   -2.46497129097631
O          -1.66759742482202    1.74475624323305    0.33740560523959
H          -2.04526307909529    2.44935264107168    0.86554755825547
O           1.81362406963216    0.41895971762269    2.05990610139609
H           2.47839568630118    0.56540499554142    2.73330399933074
O          -3.21272710267816    0.07146693585479   -1.23793997858639
H          -2.80446202563459    0.72606047487384   -0.64223654947887
H          -3.63119043557827    0.56007705362610   -1.94915032331297
H          -1.64772926335012   -0.38570937561642   -1.79189437020626
O          -0.94174201159204   -0.20094135167292    1.85613955437424
H          -1.47431979262688    0.98942386868811    0.97700576385893
H          -0.80807549374948   -0.87599774700130    1.15491430907464
H          -0.05478911587897   -0.01295974633136    2.19456290181791
O           2.18302836246361   -1.85108961863917    0.85905511001762
H           2.60632217447665   -1.66874997437946    0.01140403401448
H           1.24518417668453   -2.00053105471731    0.59929482980926
H           2.00610243665468   -0.48624840579436    1.66587635509576
N           1.01578060825343    1.35754114806939   -0.36421266558533
H           1.23744214627087    0.43424209109793   -0.95080024075818
H           1.36355912726361    1.18633076171312    0.60097047039632
H           1.48201596694502    2.15207932918821   -0.78903991583855
H          -0.00767161742576    1.50961941291587   -0.33880867451302
