    26
        -50.47206681  Gyration_radius:  2.43979431463 Dipole_moment: 6.630
 S          -0.77542710639604    0.00977010021011    1.43973907075778
O           0.48845198987784   -0.22811569357030    2.11420696967819
O          -0.87778542847486    1.32794264644812    0.85259797962341
O          -1.00576742445520   -1.04263080292827    0.42647158469472
O          -1.93325445979564   -0.11735529429252    2.47872344089021
O           0.06624827753519    0.95828983268169   -2.77851805526017
H          -0.10154881555202    1.24843109080015   -3.67569550188228
O           2.54084282174424    0.26595975711805    0.48599851658637
H           1.95253912961361    0.11209544736262    1.25444757785555
O          -2.13706168877650    0.72537772144766   -1.37846425939875
H          -1.82443996873525    1.18283494500176   -0.57089229796148
H          -2.19373661272811   -0.19361791175429   -1.09192021984443
H          -0.81866019288969    0.92505112170933   -2.31942234622120
O          -0.80170603695947   -2.49167982123582    2.77904873642542
H          -0.02042265379704   -1.91991064533329    2.83351525161752
H          -1.79412085301307   -1.00424504216287    2.86305458343677
H          -0.97317002332493   -2.58819587503161    1.83493629775718
O           1.22918894650483    2.33259119079712   -0.53501502179304
H           0.46675970982874    2.17534258168923    0.04924518069650
H           2.30420467903580    1.17019502757216    0.17182331069588
H           0.93226369632911    2.07740149631780   -1.41881059248838
N           1.06268368980182   -1.01025887734994   -1.18974824860233
H           0.82094655348680   -0.35228915506953   -1.95383499361824
H           1.37639353358712   -1.90306328647754   -1.55350014433482
H           1.81160981442294   -0.53938643229503   -0.54255536294345
H           0.20496842313345   -1.12053411165150   -0.57543147636781
