    26
        -50.45305799  Gyration_radius:  2.45620206899 Dipole_moment: 10.325
 S           0.44399865735701    1.93671567233970    0.78659760222413
O          -0.78606769660978    1.53337376623269    0.09604850933983
O           0.68653567968648    0.82255658768082    1.89136053097909
O           1.60469818484486    1.70688418275512   -0.10328195087569
O           0.40242876158743    3.22667636297256    1.38289598776296
O          -0.50291680399800   -2.08553942652273    1.15369932252528
H          -0.75218204556805   -3.01051492079590    1.13650681749055
O           0.10641954396874   -0.74105343442140   -2.67338073220598
H           0.19175080624716   -0.97445492805114   -3.59807216394407
O           0.05890540029494    1.83382259454269   -2.35792616387265
H           0.06472204657475    0.26325675648661   -2.63863513536894
H           0.93491464813839    2.10908951431047   -2.06155096063991
H          -0.45918472678910    1.83991439360478   -1.52070788205357
O          -1.29726784011348   -0.36057836531815    3.16979673550539
H          -0.91499523142202   -0.61679670660492    4.01108203522055
H          -0.14731844516444    0.64454218430612    2.37436166229063
H          -1.10193858263955   -1.07542260116112    2.53665842104543
O          -1.83982566862926   -0.78224029013886   -0.61656255571887
H          -1.62804351964133    0.12474189798899   -0.30377058689535
H          -1.38570435494575   -0.86585222059186   -1.46703867594000
H          -1.10986371267395   -1.62075822995788    0.49600739869745
N           1.49539648040078   -0.81008780348680   -0.33688814634160
H           2.41674237885128   -1.23267195119359   -0.29584557601558
H           1.58173499289400    0.29315829535034   -0.19270137186684
H           1.05369300316517   -0.95436908655222   -1.26743423609941
H           0.88336806418856   -1.20439227377729    0.39878113476024
