    26
        -50.45305798  Gyration_radius:  2.45618596529 Dipole_moment: 10.321
 S          -0.77906706185734    1.97035971947998    0.27686806714513
O          -0.41666824793483    1.99489650116219   -1.15839865945634
O          -1.23673396808724    3.21384965071494    0.79247897474302
O          -1.95617240602489    0.90499287438673    0.27165342626294
O           0.30470359889728    1.34360909996092    1.04180675484258
O          -0.99597714122242   -2.16674013041949    0.49830812326354
H          -0.94031800737962   -3.12234853630745    0.53999595283385
O           2.37933640204770   -0.65097764678911   -1.27271327143133
H           3.18817178176828   -0.84570454845544   -1.74662699874116
O          -2.44709570113035   -0.67701395852886    2.32718111170738
H          -3.38449001750431   -0.86689720263978    2.25774621558479
H          -1.98122170848229   -1.32517696536876    1.76787278743295
H          -2.09321767073703    0.55429701791372    1.17639500264962
O           1.22542170582820   -1.12234431140437    1.26878584030622
H           1.82964319906758   -1.09591250307396    0.51318039809351
H           0.91050814057177   -0.19769196953547    1.37422207497572
H          -0.12954347001973   -1.81973614297850    0.88028886470374
O           2.26130075347046    1.85537911717540   -0.61240132826205
H           1.67003203417835    2.29546934319461   -1.23499867059516
H           2.42301436855194    0.32384071453470   -1.02890290775470
H           1.68778878023091    1.74131048830489    0.17977505675953
N          -0.31092255872037   -0.48753486650871   -1.63555024594508
H          -0.72700078712793   -0.71718550929397   -2.53179631468416
H           0.70724476333103   -0.69899630869274   -1.62554202690687
H          -0.41070055572734    0.60755618028600   -1.44483371563571
H          -0.77803620598283   -1.01130008711856   -0.87479448188944
