    26
        -50.45289447  Gyration_radius:  2.64794013981 Dipole_moment: 2.991
 S           0.27820576502353   -0.68969543375551   -0.33407546357659
O           1.42082744746888   -1.56321009510178   -0.21981791788020
O          -0.81315744031903   -1.18048911604974   -1.12083215749362
O          -0.23626243927672   -0.35218611272650    1.06141951623729
O           0.75394262174908    0.66097471840882   -0.90282115961915
O           1.96716060394147   -2.70229146622744    2.18288777155943
H           1.36902431269511   -3.43355306260386    2.34239143775653
H           1.86331179986091   -2.45504029081201    1.24631790143640
O          -2.58764549410756    2.39905864702509   -1.83587584248257
H          -2.26270897436721    3.18556835807721   -1.39510936677719
H          -2.80114705208409    1.73767964677949   -1.12233612602306
O           3.19870133746769    0.36693246266279    0.44106727661648
H           2.78739871813870   -0.43424904286247    0.07402592930958
H           2.87768136289872    1.09049563631594   -0.10313844298811
O          -0.70533513237108    0.91023658628406   -2.90483782881495
H          -1.43082101438541    1.53665562061917   -2.63308676946012
H           0.20198736639734    0.84664347481073   -1.76921260978506
H          -1.07299132258264    0.02214956027468   -2.81099255549326
O           1.69921398803673   -0.06793599538573    2.58603492629557
H           1.89565397857537   -1.01523587633300    2.74370389693254
H           2.39749354829202    0.23206911697713    1.95580265450308
H           0.56741693044223   -0.18485086628606    1.75242448803331
N          -2.86417850984152    0.50103178062617    0.02691305358541
H          -2.26720304704987   -0.21714888594802   -0.37956118039652
H          -3.77440358270820    0.08685248853739    0.18767631988104
H          -2.46216575181124    0.71953812673410    0.93103224866428
