    26
        -50.45305792  Gyration_radius:  2.45621046723 Dipole_moment: 10.318
 S          -0.27983948503083    2.11684962754046   -0.06656840273762
O           0.21708794598613    1.84214472588027   -1.43377681286984
O          -1.68029197168175    1.36953902120821   -0.09954150547276
O           0.53098400230196    1.37348132976029    0.90430811570868
O          -0.45991669088606    3.49526936000458    0.23165976854376
O          -1.55609292736111   -1.77033641098974    0.61748885253960
H          -1.74780236571045   -2.69486764912896    0.78023299234168
O           2.25219310953612   -1.37716775419735   -0.85927583718581
H           3.02778818984720   -1.82559512493435   -1.19707689187253
O          -2.75641631701689    0.27489597296545    2.04840222200178
H          -2.41729929646213   -0.54074078251366    1.63648676788104
H          -1.99059275237335    1.20176155795639    0.81468809716950
H          -3.69999888371954    0.30443331048416    1.88011578917498
O           2.70622366995664    1.15563379706992   -0.52659982743869
H           2.51632691523214   -0.41527990344680   -0.73052295014071
H           2.04765186411297    1.29972151516607    0.19092064984934
H           2.30895663420550    1.62493164393209   -1.27009569227507
O           0.76979637819360   -1.17842495173848    1.54462349262988
H          -0.67232958383149   -1.58527467755202    1.06651503301065
H           1.43346822745275   -1.40878516798661    0.87899792151938
H           0.69029616095478   -0.20036036397288    1.49558651502498
N          -0.26002119257773   -0.63766632008588   -1.59195681550672
H          -0.62941429311065   -0.89331865524270   -2.50152212127333
H          -0.91771818897001   -0.91637744585934   -0.84296345083623
H           0.66554290660677   -1.08016445413334   -1.42129832065107
H          -0.09858206565754    0.46569778981352   -1.54882759913403
