    26
        -50.45313275  Gyration_radius:  2.57391600506 Dipole_moment: 5.679
 S          -0.81466619649117   -0.40087734159095    1.97318197183362
O          -1.11513239001603    0.74328623777918    1.13002812617577
O          -1.39124164377079   -1.65654667836662    1.27359974974296
O           0.71052310682307   -0.60668320152721    1.96466892260554
O          -1.29860528435338   -0.34958043223585    3.29957488298286
O          -1.84828700265384   -0.04193126152101   -2.33411527895021
H          -2.36977775825833   -0.14898039529164   -3.13039148253923
O           1.67007590737178   -0.16059108928943   -0.34297383971207
H           1.08776265404201   -0.43916613769076    1.02662000384514
O          -3.32604732524510    0.01185678951081   -0.14169006788684
H          -3.46873477455024   -0.85307494924957    0.25129186544765
H          -2.62636940479503    0.42918123850038    0.40024091467516
H          -2.48868357615299    0.02095273135403   -1.58007479616752
O          -0.32891537039437   -1.87105536145670   -1.03030195251897
H          -0.97096922147827   -1.79106571030244    0.35357004560470
H          -0.84094084648498   -1.27506202755646   -1.61470033591473
H           0.55102493379342   -1.47142463046148   -0.94344454756233
O           0.00100939945178    1.69259104883407   -1.13155278450716
H          -0.45717692068482    1.62816050627100   -0.27560511285343
H           1.14165773412784    0.60330738487192   -0.70585758784096
H          -0.59354047797052    1.25951994379344   -1.76275736003198
N           3.87155824604013    0.99336920127951    0.69954201585024
H           2.54613613571701    0.21576040842216   -0.08155151003476
H           3.88321170114980    1.98959595565435    0.51947937806502
H           3.68429607733833    0.85441442479738    1.68529929130870
H           4.79183230744502    0.62404333547092    0.49791951838190
