    26
        -50.45313274  Gyration_radius:  2.5742596758 Dipole_moment: 5.682
 S          -0.83284274100263    1.64646169276073    1.14840078959033
O           0.70451903554389    1.65786803175490    1.22101149640130
O          -1.37986996936564    2.50248295811090    2.13034006509808
O          -1.17087075858248    2.20724037256818   -0.25518548592239
O          -1.27088351052350    0.26168626809742    1.18044244152285
O          -1.70657225793953   -1.29624501126173   -2.06663571664512
H          -2.16617591403295   -1.67793291061221   -2.81531409613647
O           1.68816582511940   -0.24984081169853   -0.13467374195861
H           1.09385388883904    0.89407686690783    0.65940993261202
O          -3.27593682339172    0.20378272854433   -0.55660041091224
H          -3.30006548236993    1.12769433119849   -0.81866060067100
H          -2.38396137461403   -0.80207153428382   -1.53799151292281
H          -2.67682129854879    0.17035089572496    0.21629482749781
O          -0.21380030986955   -2.01422954761892    0.19834160996546
H          -0.69568653384948   -1.37412501924229    0.75039588201834
H          -0.70197243121865   -2.03514695882491   -0.63869626385866
H           1.06317591100080   -1.01595833880476   -0.00462598810226
O           0.01853824240325    0.79550571471755   -2.00906830463746
H          -0.55300964013469    0.01338525915506   -2.15207390175344
H          -0.69228997103893    1.68128096175808   -0.98674886606261
H           0.81957049817583    0.46642446231481   -1.57129616242006
N           3.63054201287334   -0.66486619068626    1.68760053666922
H           4.60629113150373   -0.59718338745623    1.42773677401283
H           3.49291127732594   -1.54074630111933    2.17637593076890
H           3.42203253614116    0.08976217106549    2.33036399129678
H           2.48115866755756   -0.44965673306675    0.42085676454102
