    26
        -50.45313277  Gyration_radius:  2.57429439349 Dipole_moment: 5.684
 S           0.01865037368000    2.00770575495487    0.83153418669115
O          -0.94424657041424    2.30072392148717   -0.34568920626787
O           1.36913670826677    1.68283521070926    0.16840413275143
O           0.12881851238395    3.16444903117585    1.63526050822076
O          -0.45545000204011    0.80367646545218    1.49183328864008
O          -2.62930365180010   -1.30036413382058   -0.51065902814772
H          -3.43901128568354   -1.72426187763144   -0.79724240847546
O           1.35031690075319   -0.65377994240949   -0.82404081267493
H           1.34810069478918    0.74412356540358   -0.24238760260850
O          -3.06487178469074    0.81876904353646    1.01016202336949
H          -2.15907649324887    0.82303382700939    1.38016287095776
H          -3.14152892664569    1.64046682478239    0.51840827845016
H          -2.89356667026566   -0.55846863387092    0.09125293877151
O          -0.25116026487799   -1.81444481223934    0.88750801428753
H          -0.32433373982185   -0.97387315304931    1.37208822759844
H          -1.10002241074606   -1.91024440895088    0.42965388040525
H           0.81907903193372   -1.20710907525809   -0.18682051733859
O          -0.94985884237357    0.29779101660844   -1.91778402507920
H          -0.95604875085091    1.52872048408092   -1.01269554426892
H          -0.06890500024446   -0.09913185944458   -1.82833616511210
H          -1.57756750065414   -0.34395146610732   -1.52668812000656
N           3.91080385857662   -1.08195528218863   -0.09808735128820
H           2.29595888529428   -0.89982174903082   -0.67399252513846
H           4.61490811598152   -1.30027436394777   -0.79147309860507
H           4.12767011850944   -0.17487428174542    0.29723823404747
H           3.97150869419418   -1.76974009549522    0.64238981082347
