    26
        -50.46062692  Gyration_radius:  2.58227786247 Dipole_moment: 4.401
 S           0.05629335179277    0.83155801557063    0.12617910396398
O          -1.19246506908705    0.33063533231408   -0.43452286540221
O           0.65512546722465    1.85425593624790   -0.69732966563151
O          -0.26853801235334    1.38901313525769    1.52892744129967
O           0.99224047855721   -0.31051258668208    0.31817072373853
O          -0.03949489259130   -1.05940777052738    4.02120803781921
H          -0.44658638965316   -1.39284798544581    3.19461907918165
H          -0.71097491245930   -0.53300698076572    4.45840720238298
O          -0.98027120969762   -1.62176948857757    1.53590369540966
H          -1.64899743431061   -1.05550644426641    1.13567892783569
H          -0.15098721675458   -1.30928477912337    1.13175292185509
O          -1.89117355930106    1.02725634452574   -2.88808301895282
H          -1.72085521136072    0.78151768108109   -1.95078639254659
H          -2.38930275134776    1.84521597190579   -2.85506692737684
O           1.74394919616157    0.54658538712776    2.83663684023353
H           0.54115640467393    1.21658958634410    2.11235458527747
H           1.24032897495767   -0.07386004732227    3.41494772676853
H           2.00268135172612    0.03518090931972    2.05929066416578
O           0.75359376925446    1.01553811852401   -3.17358168736802
H           0.71572726663331   -0.34558795614520   -2.65314478704203
H          -0.20168669126353    1.14369113807412   -3.36438829278990
H           0.88083762680817    1.49114500122853   -2.31661013698885
N           0.56059093369423   -1.27323942923429   -2.05238309165694
H           1.09422400973848   -2.06711732380044   -2.39256181549086
H          -0.43797560382187   -1.47386217601148   -2.03573169579572
H           0.84256014278219   -0.99217957962401   -1.05988657289416
