    26
        -50.45479395  Gyration_radius:  2.47176647065 Dipole_moment: 5.877
 S           0.14967731630510    2.04584546080838   -0.46404119777484
O           0.59364720485084    0.77913378224397   -1.01796308787765
O          -0.36797490459320    2.97192990808658   -1.40956384900545
O          -0.93147919550121    1.74772544967698    0.60152214834026
O           1.29724202998603    2.66542290541534    0.33407779233197
O          -2.01367969261013   -1.61099728283324   -1.16613341584633
H          -2.85441880021716   -2.01796723607506   -1.37950556218945
O           1.31113174402657   -1.85771302077757    1.28437220615708
H           1.48182001536473   -2.74220210280247    1.61072652531632
O          -1.15313461927587   -0.69427938984039    1.25184597728885
H          -1.00063022347701    0.76397104798810    0.87852153902886
H          -1.53862338989372   -1.08083054347358    0.44119218140584
H          -0.27337371076439   -1.10923759918409    1.35140925409916
O           0.80497996394226   -1.90065532328705   -1.27805528270503
H           0.90804067389047   -0.93921035494146   -1.37003488372012
H           1.23427987481355   -1.93457369253447    0.29286383854648
H          -0.14847829062311   -2.05093201735495   -1.35779579757191
O          -1.61052644516221    0.64507459414578   -2.53540987140005
H          -1.95800069648868   -0.78770900158834   -1.70295841141658
H          -1.93400412095940    1.54910244887188   -2.49901844439852
H          -0.70138538165094    0.70474641240922   -2.19519943508694
N           1.76231842676859    0.90666245338654    2.12540731723316
H           2.62506536360835    1.05168987864490    2.63335797148938
H           0.98764720099372    0.96701702911850    2.77441481885714
H           1.55841476667702    1.95950850133456    1.06632865658903
H           1.77144487999776   -0.03152230744234    1.72963900231160
