    26
        -50.45313310  Gyration_radius:  2.57369752829 Dipole_moment: 5.669
 S          -0.59613140796080    1.56447485000303    1.38251679546553
O           0.65225735349749    0.83033945521566    1.90366811037078
O          -0.79874752656722    2.76520980384980    2.09906065309226
O          -0.47310353936357    1.68492515259924   -0.06000255125126
O          -1.77454853435065    0.60110692162959    1.66889133475910
O          -2.00395324707283   -0.99624685908503   -1.96479741527558
H          -2.63368825869335   -1.43003542201518   -2.54162644804962
O           1.34613651314900   -1.01490359592058    0.30393768050628
H           0.91687583290503    0.07808862969518    1.25997877767825
O          -2.94248434879548    1.24844436702428   -0.92780205110075
H          -3.39735708753298    1.12881765814069   -0.09015188489551
H          -2.05600904069447    1.58986617562948   -0.69351144710242
H          -2.42334894613082   -0.14717899788398   -1.67208693370157
O          -1.28635844946046   -1.64254576649381    0.56921385019311
H          -1.60504903504741   -0.31997258334584    1.26357987367151
H          -1.55926066669283   -1.54273698677540   -0.36586129844434
H          -0.31889569793414   -1.71709613291402    0.56091124170140
O           0.58739787994250    0.08019087647997   -1.94710713696482
H           1.16786549666479   -0.65544690963880   -0.60898444072179
H          -0.22710629155467   -0.37901486524495   -2.20228197652032
H           0.28651711790864    0.86167059726968   -1.45166788955344
N           3.96158416021710   -0.50716831303638    0.71362083298184
H           2.32627331752026   -0.97176968817664    0.42554452046190
H           3.88571851261063    0.20689095095552    1.42813756866466
H           4.58448342373870   -1.22877170867853    1.05340905796760
H           4.38093247969381   -0.08713760928510   -0.10658881394384
