    26
        -50.45313284  Gyration_radius:  2.574543477 Dipole_moment: 5.690
 S           1.27527504935126   -0.44910902567413    1.70264451474155
O           1.68465393090268   -0.38112357304302    0.31040712085463
O           2.31046507747985   -0.55151860888922    2.65873538247833
O           0.39136955421816    0.77637480967038    1.99605187215811
O           0.33038626831435   -1.66753100376197    1.84910320900163
O          -0.47247091206329   -2.13426767506565   -2.02053697337759
H          -0.74798424179066   -2.80942019846042   -2.64158327399356
O          -1.11646688101182    1.29634229039461    0.02084977381657
H          -0.22427334398009    0.97043993701048    1.20006789749544
O           0.45652403194903    0.51157567012858   -1.91594020103060
H           1.13202066827239    0.27537791580399   -1.25664982951949
H           0.09838633222270   -0.33712732127271   -2.21733736744345
H          -0.56757409191962    1.10230563980503   -0.78881753750474
O           1.54939504698268   -2.90431472635125   -0.49989044098277
H           1.28026785275299   -3.33088806622042    0.31772267550510
H           0.31617234625609   -2.49395734043796   -1.53970517985849
H           1.79392048832400   -1.99142951806760   -0.24641831097271
O          -1.65854835776706   -1.35437512169329    0.29036214728355
H          -1.77614540197932   -0.39393102568390    0.21687027321611
H          -1.35571099057396   -1.65852820300414   -0.58975509830104
H          -0.49380095999287   -1.56796279789957    1.25602018471893
N          -0.84003552272815    3.95293108659935    0.38501590470986
H          -0.29729510525943    4.36969638135210   -0.36120652161686
H          -1.14850935692569    2.28150843077891    0.09689462860381
H          -0.27169645220764    3.95074712555540    1.22358194379673
H          -1.64832501881907    4.53818492843830    0.55351322621865
