    26
        -50.45305781  Gyration_radius:  2.45616909819 Dipole_moment: 10.325
 S          -0.28199321054430    1.88480904623442    0.96613491033652
O           0.76536445091351    0.89819683973868    1.25367052285719
O          -0.35767798701391    2.96529600472542    1.88721248345793
O          -0.19589271180806    2.29207226617838   -0.45461794798654
O          -1.63994558178664    1.06251678975614    0.96255679944452
O          -1.31975533463414   -2.04324522907269    0.13048410964724
H          -1.46179160133775   -2.96294910103180   -0.09751751104457
O           1.90956816402901   -0.57570905682731   -1.93120496632128
H           2.55394891515554   -0.73018069082108   -2.62236792546482
O           1.17653612142626   -1.62704366593169    0.59378838179326
H          -0.34368253962230   -1.96284277806895    0.37098501975920
H           1.62175918975999   -1.46087615232044   -0.24925967852360
H           1.08797870715871   -0.74279021777416    1.01255940202285
O          -2.05632086555227   -0.98183405386836    2.58004192107104
H          -1.84968060046128   -1.49056439764867    1.77475705667459
H          -1.67565715073038    0.47540535210331    1.74643783319276
H          -3.00859641330519   -1.00394567509141    2.69097273431750
O           2.44762228632183    1.59709719892256   -0.61900878338212
H           1.86049363014054    2.29032413034711   -0.94371810951880
H           2.20256903244497    0.25977161513250   -1.45414174236661
H           2.01682227281656    1.33272651120027    0.22593984965038
N          -0.70505512184938    0.08528914411474   -1.58209362250175
H           0.22978953334658   -0.26665201529777   -1.87182510827581
H          -1.31925449175952    0.20247259815399   -2.38095953202536
H          -1.12202410334799   -0.57022962907201   -0.89823924806546
H          -0.53512459976283    1.07288517622609   -1.09058682874842
