    26
        -50.45313312  Gyration_radius:  2.57400306271 Dipole_moment: 5.680
 S           0.46987544793856    1.96922109130095   -0.78740468404117
O           0.52215674086964    3.33921508045326   -1.12902232359272
O          -0.85399176754496    1.38947517805196   -0.63974461642245
O           1.21685717954254    1.15054291575897   -1.86927682322875
O           1.24780282733656    1.70887910871108    0.51496010207975
O          -1.18674306369019   -2.01642065062653   -1.84145214295049
H          -1.46642880386937   -2.73576254485990   -2.40870634739179
O           0.72084705691811   -0.59886546635343    1.43284320279330
H           1.04090391950263    0.77053244422733    0.87104324934702
O          -1.75868123735708   -0.81035271552045    0.62673077534956
H          -1.73891605021169   -1.41515125772098   -0.13038638717663
H          -0.24711338564958   -0.74527372098836    1.24308994010157
H          -1.69486274270184    0.07827646194741    0.23564741624534
O           1.32473507640006   -1.28275634345746   -1.12849429758131
H           0.46514957854744   -1.67493167795044   -1.38564310675571
H           1.30226272269089    0.17067994968013   -1.59703336888315
H           1.32788807522430   -1.25358602762508   -0.15854304499756
O          -1.33754702152574    0.34166569404024   -3.02920380118849
H          -1.32071712661677    0.84124346750868   -2.18808525873176
H          -0.53423040466657    0.59580483183063   -3.49072935460663
H          -1.32916179651465   -1.17894588708558   -2.35227274284259
N           0.76686958006863    0.29877425286739    3.97396579504773
H           0.78100100572252   -0.40491248246753    2.40043676697309
H           1.39974743046757   -0.10211771858280    4.65439123105946
H           1.04603373783521    1.25864684471191    3.81021995850843
H          -0.16373696872408    0.30611915214867    4.37266988288643
