    26
        -50.46062655  Gyration_radius:  2.58311023174 Dipole_moment: 4.434
 S          -0.54771668213416   -0.37027461900921   -0.52690425193428
O          -0.68178103081895    0.43198095796126    0.72057411522781
O          -1.04510950654086   -1.79529043437965   -0.20172136932953
O          -1.32893186554389    0.20612170016296   -1.59470745207447
O           0.86457400078960   -0.47832929922284   -0.87028159897535
O          -0.61905382715555   -2.62089923052731    3.17297923352943
H          -0.53693878253039   -3.51601972352727    2.83964100163228
H           0.13687676687402   -2.11917628510938    2.80268747680290
O           1.78322445961124    0.72227070750777   -3.03875756963509
H           1.49293706042001    0.20341381287026   -2.25474176266914
H           1.73005031059111    0.11995182677817   -3.78213585313300
O           1.18931946932265   -1.11211490357846    1.82013093148018
H           0.50449908848942   -0.45588451356135    1.59873778234370
H           1.50790235916566   -1.39957817342265    0.95765905573989
O          -0.18225669353243    2.40731934061528   -2.42184828273086
H           0.54353537581271    1.96924904924699   -2.91784084808808
H          -0.80595563815358    1.66612382752707   -2.22555783868528
H           0.45022981226069    2.49894771604307   -1.11074373043316
O          -2.52120346229797   -1.31793402236247    1.81407264842470
H          -1.96588113998047   -1.80563353013191    2.46737848732795
H          -2.19031657060589   -0.41062800610753    1.80836108046923
H          -1.75052404575371   -1.70648515893089    0.51946127565420
N           0.90832501031365    2.30499110177377   -0.11212459954156
H           1.78704027508955    1.81139817121520   -0.25976686083275
H           0.23423081524556    1.61939205208062    0.35669417612094
H           1.04292445105360    3.14708764608187    0.43875475330452
