    26
        -50.45313271  Gyration_radius:  2.57423360921 Dipole_moment: 5.683
 S          -0.53315716220176   -0.22179649405444   -2.09522575266945
O          -0.15137448987867    1.23653972304657   -1.78461545319925
O           0.35003019703988   -1.08659427114680   -1.33193131765691
O          -1.96067448705811   -0.39250944314003   -1.51922453201755
O          -0.57122678963656   -0.43563607961923   -3.49128864733313
O           0.45314966758919    1.51031438141594    0.66576309460488
H           0.07674163179197    1.34149739613782   -0.79095026901771
O          -0.90153573493263   -2.08625980613282    1.92301679718920
H          -1.25404297049956   -2.66347190515156    2.60125457224157
O          -1.92754678494180    0.22793627248259    0.95007327134019
H          -1.61119532957832   -0.57087344115717    1.41979840629576
H          -1.22187326982346    0.88823689709130    1.03759075156568
H          -1.99410733540471   -0.12976849606838   -0.53393279919128
O          -1.24748109865089   -3.04269177264935   -0.51806017635657
H          -1.02954708866219   -2.55208467109444    1.05747936241886
H          -2.07203669093665   -2.77054730475325   -0.92905028644212
H          -0.56051187368525   -2.46849980978413   -0.91275796401006
O           1.48235345221179   -0.85428098692467    1.10233984236594
H           0.81337210682713   -1.34295227251916    1.60538566144096
H           1.31289784443993   -1.08743177346951    0.17301925358905
H           0.93434888691578    0.67292896158453    0.91423995641802
N           2.42236829434406    3.25519266568552    0.07998381502345
H           2.29743193732928    3.31908106239371   -0.92319258778536
H           2.41114437343439    4.19327104905475    0.45955192016268
H           1.14852793370788    2.20813423470199    0.58283386524287
H           3.33394477027092    2.85226587405968    0.25789920578860
