    26
        -50.45313273  Gyration_radius:  2.57385608366 Dipole_moment: 5.672
 S          -1.37898046815790    1.25069340161810    1.11853587193338
O          -2.28458092860594    2.23349693480619    1.57699857865140
O           0.07269088950303    1.71165519709231    1.33997189915835
O          -1.53144071395845   -0.02139006790641    1.98879693757150
O          -1.51181516825419    0.84602696399421   -0.27035271005116
O          -0.93105787862711   -2.67700585959902   -0.91302934545020
H          -1.13582782903514   -3.58573262600060   -1.13603423500341
O           1.69452597804400    0.24317230347113    0.05244040612151
H           0.72150768106625    1.10466155443869    0.82901606092804
O          -3.05811249760336   -1.30665300699060   -0.14444022193478
H          -2.63766803562974   -0.43705696529151   -0.30074804716094
H          -1.79140540803579   -2.23690289123510   -0.69232835245115
H          -3.22238132066376   -1.34233904321654    0.80140245356424
O           0.26477164696357   -1.69537863031579    1.31418646468827
H          -0.08702228093778   -2.15785695939854    0.52602945415546
H           1.00952298486618   -1.15822693377750    1.00053579708411
H          -0.81215023979821   -0.70927274845730    1.76448946060794
O           0.18072731401446   -0.34058558688655   -1.99922395220711
H          -0.10899185606196   -1.25495794697451   -1.86012697673269
H          -0.52842042252851    0.20503498982931   -1.61694863156416
H           1.23237487253617    0.02714303052238   -0.80437809192197
N           3.25848545325787    2.35358507986818   -0.55180524816423
H           4.23020880603195    2.37498705411642   -0.26992826655786
H           2.37913710058045    0.92022615197276   -0.17176558498030
H           2.76605438666205    3.07776252162992   -0.04276103012270
H           3.20984795437016    2.57491407269381   -1.53853268016027
