    26
        -50.45479404  Gyration_radius:  2.47170321719 Dipole_moment: 5.881
 S          -0.74740275144424    1.46022883849728    1.31678258581637
O          -0.64056148701984    1.96255161333795   -0.14250585369977
O          -1.99106598935912    1.87604037422767    1.86452670043815
O          -0.52087066884923    0.02594177733759    1.31439996591605
O           0.41881836904771    2.14337376861784    2.03160619311519
O          -1.74692484005845   -1.52116692436121   -1.62595213750438
H          -2.35146221382209   -1.79768067078176   -2.31596940228279
O           2.24529876979030   -1.19570132530146   -0.58998431252626
H           2.81277423483491   -1.81329739354060   -1.05314645488996
O          -3.01637726267767   -0.38602915996151    0.43008827888022
H          -2.18962161015169   -0.35505266553228    0.94128466988190
H          -3.43431904553524    0.46042925441156    0.60912761280084
H          -2.29697657068501   -1.10624861425764   -0.92284415381611
O           0.11598967493628   -2.40332355843550    0.32139234791992
H          -0.53414549253872   -2.37209236761309   -0.39582922169449
H           1.51538919328425   -1.73836543019814   -0.18043801536966
H          -0.12439866768333   -1.66101380680587    0.89988868830018
O           0.29372785060627    0.27762182507031   -1.79310005735792
H           1.05229593546663   -0.20424303892601   -1.40776078630648
H          -0.43445014962333   -0.37211987855138   -1.84531170697639
H          -0.23994761664990    1.28718364751893   -0.80029009560298
N           2.43519524226656    1.45795439933284    0.62356454147531
H           2.40073529472126    0.46876038864487    0.38428157605183
H           2.36371531185270    1.99191965289408   -0.23360586614894
H           1.28672265532426    1.85936343851093    1.51299067892377
H           3.32786181395853    1.65496586585852    1.05680421466841
