    26
        -50.45731602  Gyration_radius:  2.4445490372 Dipole_moment: 6.853
 S          -1.19157100407125    1.14013858592673    1.13339410825454
O          -1.30768396776849   -0.22706829774070    1.60965103594637
O          -0.52536782226566    2.01517838237663    2.07242363426654
O          -0.48501400586854    1.18587058500755   -0.17273230051622
O          -2.62372801250161    1.68699889794857    0.85167737065555
O          -0.91292236072344   -1.99178495745287   -1.84126560851396
H          -1.02239133436930   -2.56920557061053   -2.59748708393690
O           2.62988410060563   -0.53392875538052    0.34656928612570
H           3.31765795784761   -1.04263340864785    0.77795630646884
O          -2.98404595480708   -0.63481896478122   -0.42209231845727
H          -2.54868837514126   -0.83421289092199    0.42153122636344
H          -2.99622600100197    1.01333154380854    0.24694589901317
H          -2.39686813200103   -1.02359070188400   -1.08889444156705
O           0.46003875179683   -1.90720719053141    0.61889636663118
H          -0.17655646762574   -1.33388687883716    1.09851341399072
H           0.00446465324789   -2.13229688355408   -0.20789875815019
H           1.78761622547036   -1.07709383165056    0.45808661166559
O           0.91455058970213   -0.06859286849698   -2.08580044348463
H          -0.25663220621870   -1.30204625903706   -2.09642423363300
H           0.33003584252949    0.45479659927799   -1.50639395690502
H           1.67204897239858   -0.30674293181799   -1.53967183919701
N           1.72137055153814    1.92462530208715    0.79359110666786
H           2.25324313519286    1.01888284517969    0.77735889393358
H           0.87375649665247    1.75277834256593    0.14236997517609
H           1.17489746779974    2.06663291603563    1.67073323789340
H           2.28813089958322    2.72587640112821    0.53896249131022
