    26
        -50.45351848  Gyration_radius:  2.45788005647 Dipole_moment: 7.559
 S          -0.98213279911035    1.90667369176438    0.29019119960630
O          -0.52106089430624    0.92581710260891    1.31354054705804
O          -0.71036252427320    1.17200799605020   -1.09840653655947
O          -2.39035919571574    2.14383355278223    0.38536645159946
O          -0.08729966954721    3.04586496752559    0.26895805893666
O          -1.38473261639336   -2.32450896378158   -0.37851457962834
H          -1.67757142857113   -3.23299933211613   -0.30064176160110
O           2.52430910663994   -0.77014287470818   -0.15524516386924
H           3.32104848644258   -1.17518330486233   -0.49958822653732
O          -2.93193915871946   -0.09384318862847   -1.05619568716744
H          -3.14156854270265    0.53552027534965   -0.34750949341240
H          -1.57537019399040    0.69922713452186   -1.27680295907799
H          -2.58826690647714   -0.91414524844965   -0.66403610062492
O           0.60608788861124   -1.09384012901644   -1.87922978748725
H           1.81878679810368   -0.91896547292814   -0.85156943931647
H          -0.09805186191043   -1.66227336029500   -1.51988442014988
H           0.22859575782825   -0.20026567008751   -1.85518235945626
O           0.29474357194939   -1.60994973171793    1.52047190039276
H          -0.80359300982122   -2.14166315194007    0.40410880701174
H           1.15521673768060   -1.47763034370465    1.10009497539675
H          -0.10107416459309   -0.72006367556880    1.59299557996060
N           1.87586464750649    1.58710377613355    1.00373694937345
H           2.31556856132927    0.84127816190672    0.42998722920691
H           1.44403094755755    2.37840606826683    0.46327550733277
H           0.92308225342789    1.18857027541420    1.36436929055330
H           2.48604821905425    1.91117145548055    1.74571001845982
