    26
        -50.46137983  Gyration_radius:  2.45091217359 Dipole_moment: 9.010
 S          -0.39540809590448    1.30008004842456    1.69435137735822
O           0.94926961407685    1.32065577693053    1.09878749617548
O          -1.09888922866965    2.53343901089293    1.51289815227505
O          -1.13930569334576    0.13494326211226    1.17076412294464
O          -0.18591826287008    1.05903281657522    3.22511323539406
O          -0.67029971328232    0.57224923986250   -2.53686791517874
H          -0.92632547851985    0.89431454082598   -3.40190118416127
O           1.56277043735795   -2.25436501375976   -0.29963015326544
H           1.80804411884735   -3.15315525154465   -0.52106701075793
O          -2.23101316291675    1.62078487370731   -0.73567927348011
H          -1.97553938668917    2.40897807838433   -0.23390031491285
H          -2.13434152056951    0.92762360491673   -0.05706836597107
H          -1.27368205617644    1.03060169212203   -1.88292959666093
O          -0.94203614634908   -1.68539666731883   -0.80401240687158
H           0.58114830001545   -2.18201050830449   -0.44985222638264
H          -1.13824950484806   -1.10735441937463   -0.04232559558646
H          -1.00160153477078   -1.11015377539963   -1.57805230070202
O           0.66830817300887   -1.39044206318266    2.39904635977184
H          -0.11709842783742   -1.06391527555444    1.92924190594462
H           1.28199701868053   -1.66750304978546    1.70894295564657
H           0.29078997438905    0.21589008450784    3.26328086128528
N           1.63652246265105    0.31597362775856   -1.12283312787365
H           1.80487925039089   -0.68930281704707   -0.92229206175681
H           0.83945960986966    0.42673130217848   -1.78061334108756
H           1.33356769907259    0.76952465301008   -0.16567213490459
H           2.47295155438803    0.77277625906010   -1.46772943724482
