    26
        -50.46137946  Gyration_radius:  2.45112856199 Dipole_moment: 9.014
 S           0.73481092381917    1.47768510067880    1.41381360543945
O           0.35887656743699    1.93041525395956    0.06583850260530
O          -0.12555435803100    1.99905086006258    2.43195928864545
O           0.80613685294738    0.00112259454142    1.42632433122106
O           2.18547519893060    2.00785550718038    1.65836633341823
O          -2.52623201273739   -0.90964840239639   -0.06471086342140
H          -3.45609046473898   -1.13416661039781   -0.01469483008975
O           1.06745963425284   -1.06900059797542   -2.30958871856877
H           1.36530890409096   -1.72476828178672   -2.94067729765202
O          -1.69546203482396   -0.16743844129415    2.28867159643971
H          -1.64956898896861    0.76520343043987    2.54562174275476
H          -0.75060394135059   -0.37513029203979    2.16710697404460
H          -2.26838072805558   -0.59921433905761    0.85116076242018
O           0.07891719924788   -2.08806037816509   -0.11033760634653
H           0.79764096833292   -1.56512612090949   -1.48956721399808
H           0.41025821348355   -1.43832240419036    0.53832585930028
H          -0.88180098357772   -1.98586635502455   -0.10028843549709
O           2.82676834658378    0.22552397623289   -0.29688434098767
H           2.70016447682439    1.61466214123022    0.93719481970915
H           2.17551127680714   -0.10451034517125    0.34431444002013
H           2.44685959500839    0.04293699025447   -1.16404004182379
N          -0.94271396900931    0.61409272645800   -1.66361265152581
H          -1.38148219129010    1.24583278443431   -2.32364210239494
H          -0.23844783830132    0.00661102825403   -2.12628084240784
H          -0.39283458739814    1.19326881980229   -0.90485982400217
H          -1.64501607948017    0.03699135487656   -1.15951348730339
