    26
        -50.46138031  Gyration_radius:  2.45057195236 Dipole_moment: 8.998
 S          -0.32287867358641    1.89508895767647    1.00611760550871
O           0.62375089713507    3.12834280308518    1.17380374242240
O          -1.62188001127028    2.23939573966745    1.49955902676347
O          -0.33035584479126    1.54762786294180   -0.43054402436113
O           0.29998874551459    0.79936577115732    1.76418290838780
O          -1.89349810396801   -1.87441689234055   -0.34045712550628
H          -2.63498146002765   -2.48013594613854   -0.36981274272369
O           2.28467187261958   -1.31278808814221   -0.81791027814360
H           2.90394338464065   -1.76199338070235   -1.39388412705681
O          -2.78821066790325    0.56846798974052   -0.23482250115020
H          -2.00966265064932    1.01214668500179   -0.61812189049901
H          -2.87618039125329    1.04190437480136    0.60594920461793
H          -2.28965720499751   -0.95824773220258   -0.26496849148883
O           2.33133182426939    1.61616538412471   -0.31266291439206
H           1.40844418355583    1.58633991744709   -0.61523984787021
H           1.47192070943290    2.81764764259661    0.82198873051174
H           2.60763645791646    0.69491105989076   -0.24467136184430
O           0.05900243435532   -0.60441663658465   -2.00039933130711
H          -0.66767975123300   -1.16963286416139   -1.70735713133975
H          -0.09478692872875    0.25473911182345   -1.56314010779332
H           1.52514927257233   -1.01878171432933   -1.39051389480589
N           0.40389548169062   -1.64067025575531    1.09143537212927
H           0.34163982062302   -0.58316910613976    1.39363372988423
H           0.52805481357360   -2.22373562193293    1.91109553028645
H          -0.47681111360579   -1.86785424997821    0.58808881411074
H           1.21715292411557   -1.70630079154870    0.44865111566031
