    26
        -50.46137978  Gyration_radius:  2.45098090254 Dipole_moment: 9.010
 S          -0.40321230432836    2.12661322899023    0.18156864289007
O           0.78893773537287    1.58413394764184    0.85076656324361
O          -1.38781066112101    2.60134186261951    1.10572148404680
O           0.09738804084266    3.32840076907720   -0.68469354802136
O          -0.93740252726129    1.11301017693300   -0.75258963659878
O          -1.17974839208102   -1.89802992899101    1.48944716374313
H          -1.63703991221814   -2.48109736687885    2.09646030177271
O           1.96512521589728   -1.42211993830249   -1.31515647404581
H           2.36943201914672   -2.06658836798903   -1.89672506919249
O          -2.62882810420918    0.22750760236435    1.08760836006120
H          -2.48437535833530    1.04649127820906    1.58405178729916
H          -1.75880973996469   -1.08674306229574    1.39833642875327
H          -2.26763850995902    0.47084369146577    0.21534303628160
O           1.34035029989552    1.37167050533667   -2.11154587857793
H           1.88314470643025    0.61964291559369   -1.84807121588178
H           0.43687430687825    1.14742762245408   -1.83292538248400
H           0.75183882265484    2.92889110460997   -1.27780685973609
O          -0.65108586320777   -1.50995007002741   -1.29320583827502
H          -0.84923345740594   -0.55684240688538   -1.22217174297631
H           0.98168300732631   -1.49021058403711   -1.45507266207005
H          -0.96280557560215   -1.89392983628420   -0.46316195237049
N           1.32067155968982   -0.86101951706284    1.24599293336325
H           1.08025945372463    0.20280514858145    1.09119192444875
H           1.96516188826330   -0.95619647306260    2.02240331820769
H           0.42440949304100   -1.35479406494824    1.42816013080686
H           1.74271385652035   -1.19125824711781    0.35607417530859
