    26
        -50.46137946  Gyration_radius:  2.45111202221 Dipole_moment: 9.015
 S           1.08164903488779   -1.40099862910665    1.26082580730709
O           0.33420980157861   -1.60353198511196    0.00154238115480
O           0.73615989925136   -0.08490224788751    1.81945763590400
O           0.54971077884677   -2.45749597977901    2.28370291564651
O           2.49274557003241   -1.58100332103586    1.10228593477167
O          -2.57796687185364    0.98096078855211    0.08236893820135
H          -3.46167814248002    1.20742692212524   -0.20885349552939
O           1.14731797644113    1.56475699588889   -1.85697379134028
H           1.66557368211806    2.09451881135332   -2.46385021864694
O          -1.88510451765155   -1.54882281973177    1.47541489387553
H          -1.24240191974330   -1.65752468888581    0.75475062218837
H          -0.40060348926373   -2.27295066859394    2.33366869190707
H          -2.24661082407918   -0.66200761928728    1.36369422336265
O           2.37557107959342   -0.68951289034111   -1.42205373158603
H           1.59624249340131   -1.21788434201489   -1.16872723792272
H           2.94854967380769   -0.82158452342521   -0.65259179334836
H           1.67785966264067    0.73133668555001   -1.69690833461028
O          -1.11967833514527   -0.17445384278402   -1.75897604096934
H          -2.15340208643347    0.47584024278221   -0.66327393617635
H          -0.44711700192575    0.43924527629943   -2.08246020153754
H          -0.63325117217449   -0.81667706654162   -1.20794182662371
N          -0.09229445242484    1.93439566692109    0.53345740109374
H           0.38244835529450    1.93753747499700   -0.39109560663266
H           0.09917316391148    2.78178524529267    1.05549532720644
H          -1.11282469346956    1.77949195720937    0.41697181467568
H           0.28572234484724    1.06205457755703    1.09006962762799
