    26
        -50.46214858  Gyration_radius:  2.45490382227 Dipole_moment: 8.527
 S          -0.93968654969107   -1.54558861158476    1.13812360862519
O          -0.64065994593788   -3.07828624750907    1.26767312722417
O          -0.85052500149154   -1.19877903843858   -0.28520420213451
O          -2.25068990361793   -1.29971818888153    1.67405723353579
O           0.11819659734339   -0.85618925485113    1.88767278874172
O          -0.95581287743565    2.42776841107167   -0.15816418496039
H          -1.34182074087257    3.28107471481160    0.04483772959356
O           2.49741683486283    0.24846338812234   -1.20903574919892
H           3.15640827232720    0.49384860205336   -1.85904817470022
O          -2.89371403933093    0.70918587976652    0.11500251273156
H          -1.69197068297292    1.76196399672649   -0.01974750920596
H          -2.73910660621772    0.01653141330726    0.79896402526150
H          -2.93851887644482    0.21462140374290   -0.70770889168634
O           0.04016374247156    0.56877442734982   -2.06327962276699
H           1.61356507779290    0.30455510777636   -1.66568618910863
H          -0.36454993051849   -0.14012162497354   -1.52428150506862
H          -0.30882949528673    1.38874616508132   -1.69150212376930
O           1.49295891555232   -2.42035643690662   -0.35704689775098
H           0.23907516765097   -3.18162415015436    0.88188843006100
H           0.64682150642006   -1.98360375147186   -0.55849309719299
H           2.16220234003593   -1.74028369019285   -0.48893015836122
N           1.21002378497514    1.23414944738045    0.95754648051929
H           0.75266759019453    0.32267876928233    1.36975883844337
H           1.69734921873035    1.73486304419898    1.69186453501829
H           1.85959640079119    0.93871365353861    0.20148509266964
H           0.42943922067139    1.79861255075465    0.55925390347953
