    26
        -50.46137978  Gyration_radius:  2.45092334567 Dipole_moment: 9.013
 S           1.91623413276748   -0.29990279593327   -0.97795028995347
O           1.91108673671454    0.14299886648872    0.42461321977583
O           2.43932944474446    0.69123753065653   -1.86843564066585
O           2.83873843560603   -1.56161211740799   -1.02867176569210
O           0.55613881082080   -0.74327861833722   -1.35073852562039
O          -1.29938366546751   -1.36147022627871    2.01760431660554
H          -1.99244824405055   -1.83422700159673    2.47931340139771
O          -1.50411890204891    2.20968237504192   -0.25994108407331
H          -1.93973842843340    3.05091647286198   -0.40174909342167
O           0.84938020860311   -2.68525077098820    0.45040305389325
H           0.37095876146938   -2.38547571464584    1.23194531834193
H           0.53453850151610   -2.12191029222810   -0.27602060687798
H           2.42119697796952   -2.17832019806153   -0.40811280985003
O          -0.01769938549047    1.65555777213681   -2.32458946760513
H          -0.00647385887937    0.68602882761093   -2.22300732089086
H           0.93056340068711    1.85215366401425   -2.34044430104571
H          -0.92157331031047    2.06289139520837   -1.06048992930780
O          -1.96035704137522   -0.60851534894033   -0.40074104412918
H          -2.10371697371822    0.34678297295039   -0.42252963548001
H          -1.10896087264111   -0.74788061188382   -0.85732102579224
H          -1.62970086692642   -1.20560982568758    1.09130410014058
N          -0.07438318517844    1.02700679250720    1.72611951684928
H          -0.66706573742158    1.57199820671357    1.06892598588965
H           0.79323926915483    0.66077937110739    1.15446355204058
H           0.24344478892993    1.59528133897520    2.50283219241647
H          -0.57922901705667    0.18013794569983    2.05321789305305
