    26
        -50.46137945  Gyration_radius:  2.4510665829 Dipole_moment: 9.014
 S          -1.48743780336395    0.98801926722850    1.23859231027320
O          -0.53196260348324    0.07885324671215    1.88959817187421
O          -2.90869940933055    0.51100795761852    1.68331553619439
O          -1.31177565222485    2.35166542229214    1.63636174324013
O          -1.40856039342806    0.80484786438029   -0.22631292267589
O           2.29191029317723    1.13824810887168   -0.81427944351789
H           3.08685708751753    1.63177180712983   -1.01932447925050
O           0.34819660361520   -2.62929425832352   -0.76047617078196
H           0.47214862806329   -3.39030262428136   -1.32838646854394
O           0.32350498448965    2.80076765357715   -0.43891880405198
H           1.58010270927045    1.82108238508927   -0.64474118619769
H           0.06422719233974    3.09792591434174    0.44553443301128
H          -0.40669672497804    2.19140967917956   -0.65396675184571
O          -2.30181625083240   -1.67324000381748    0.17684785344265
H          -2.03120454933499   -0.82863235438963   -0.22018296753000
H          -1.52169439003350   -2.23810932756173    0.13204585827463
H          -2.94973453886533   -0.40858407348905    1.37940613156791
O           0.19455263924521   -0.35788514856705   -2.05234604611094
H          -0.48041824255793    0.09570623500731   -1.51258944537772
H           1.00467632593740    0.15242368893560   -1.92222239258014
H           0.21815304622786   -1.84501945099429   -1.36008138771617
N           1.58522009381882   -0.87143453920142    0.87391461801122
H           1.27256537606296   -1.69102542790223    0.31756613245534
H           1.99221959464487   -0.14462747655038    0.25240942362192
H           0.67431534488430   -0.44325353513489    1.32194464687338
H           2.23135061912795   -1.14232102015087    1.60629160733817
