    26
        -50.46138029  Gyration_radius:  2.45058736122 Dipole_moment: 8.998
 S          -0.50670969023475   -1.91959941763560    0.87585898906385
O          -0.10639723877217   -1.88192844512544   -0.53875649603888
O          -1.87681612464076   -2.29502873417152    1.05241545643890
O           0.40297932214182   -2.99634382465698    1.55305350373389
O          -0.18337227665291   -0.62205173860189    1.50575081575183
O          -1.80321025932582    1.77614446800362   -0.89827082398598
H          -2.53027664553847    2.31275831804383   -1.21609999359229
O           2.38184497416591    1.07909865207710   -0.88117934953724
H           3.10905010384249    1.69588888229382   -0.96973589035657
O          -2.64033204941455    0.26991636859388    1.05378672264395
H          -1.78277450999349    0.14037578163199    1.49842212816062
H          -2.91393171378240   -0.64785414929139    0.90705102679332
H          -2.18467223356736    1.19459263421765   -0.17841256706562
O           0.51471419067640    1.87281488687092    0.77317085497718
H           1.78577872964684    1.44244475157915   -0.17129094240686
H          -0.27375546157224    2.13821826901628    0.28193113059558
H           0.28251400526711    1.01815458082843    1.18376052082653
O           2.37627240624591   -1.19447326116725    1.03316846181536
H           2.60749977601395   -0.69691002414409    0.24037069772409
H           1.55002658384911   -0.79706183599075    1.35494105665041
H           1.30256962773349   -2.67363394473926    1.39106482580314
N           0.09687511395938    0.17649031848592   -2.00114479084775
H           1.03692315109876    0.56393674226720   -1.78884281824532
H          -0.64532936349141    0.84429198576631   -1.71202759951800
H           0.01073532815747   -0.07949873341213   -2.97800614896978
H          -0.01020575581520   -0.72074254074018   -1.37097876041644
