    26
        -50.46214875  Gyration_radius:  2.45496294594 Dipole_moment: 8.523
 S          -0.68772939794724    0.28889010729292   -2.00268897933055
O          -0.12424162238288    1.51317208977296   -1.41986798952322
O          -2.10362365174738    0.38349887826134   -2.23243438613488
O           0.01858261525264    0.09785577439193   -3.38829360957444
O          -0.33971174521786   -0.86744807216368   -1.16842637746762
O          -1.57326590949152    0.17726035771351    2.07891885823247
H          -2.23943475717313    0.46106582448148    2.70658522970968
O           2.52837439426201   -0.16334865800190    1.16079892609141
H           3.22494703029029   -0.45387225703722    1.75015938238008
O          -2.89818231471327   -0.70520228038152    0.01755431647614
H          -2.72324990028633   -0.22167345759044   -0.82336857928499
H          -2.08113630028107   -0.13110707933734    1.27182370931386
H          -2.57600456003158   -1.59373156986248   -0.15586410390190
O           0.40141877311731   -1.69311212842685    1.24961177147672
H           1.82061447933063   -0.86400359991723    1.19061997143392
H          -0.26452705302694   -1.26097743702744    1.79913832112351
H           0.10569973505385   -1.53506395040289    0.33067250071933
O           2.19744983801275   -0.44939294217248   -1.78283876312219
H           2.64023124737770   -0.15853507231348   -0.97845503175475
H           1.34189448815201   -0.80539857498411   -1.48516136853108
H           0.95684085573417    0.02795263924649   -3.16884919719882
N           0.48460484519542    1.60653373175176    1.03951172554004
H          -0.29912671535026    1.12943735302390    1.53461171437406
H           0.58795063674521    2.56850581264941    1.34175215725743
H           1.36638292066749    1.07038890239694    1.16573126841457
H           0.23524206846290    1.57830560863667   -0.03124150671467
