    26
        -50.46137992  Gyration_radius:  2.45076209113 Dipole_moment: 9.008
 S          -0.28102326789959    2.02841513665022    0.72254662323573
O           0.74215545117329    3.01213184018172    0.53753518852096
O          -1.55058204659447    2.72497283195564    1.31289359391599
O          -0.69055835300458    1.38387208968825   -0.54327909986987
O           0.09905739451993    0.98908304232551    1.69137875333234
O          -1.43169602087261   -2.32807241849907    0.37291608953033
H          -1.91796741288751   -3.12578106769339    0.16257274025486
O           2.23751271235209   -0.88805275241409   -1.19050733489313
H           3.08849243947331   -1.10173582915853   -1.57486816866582
O          -2.71372770181701    0.31416913659081    0.82197579189368
H          -2.11570613001959    0.61710045106737    0.11853560114226
H          -2.44045435173078   -0.58943172199453    1.01810959406537
H          -2.18894704332058    2.00125914717062    1.40568804293337
O          -0.56533657950397   -1.03085541235094   -1.72923569758738
H           0.39183062761142   -1.13494172488518   -1.81103558079014
H          -1.23105377595740   -1.88056546321009   -0.49364562257750
H          -0.69550769983817   -0.11293616949003   -1.42388120513267
O           1.75570438555054    1.64770633467753   -1.53248634435448
H           2.11874984385557    0.09786651966127   -1.31574930669283
H           1.94049389337328    2.30122526325975   -0.84191875881665
H           0.78256455831776    1.60379281477117   -1.49358720734788
N           0.95236090454094   -1.33659476821121    1.16219113627987
H           1.48241617486113   -1.70014471931307    1.94583334117325
H           1.53267539372396   -1.27333914157546    0.30235492897454
H           0.09864657527817   -1.90067679043914    0.98337221007766
H           0.59990001881590   -0.31846663876430    1.39229070140119
