    26
        -50.46137969  Gyration_radius:  2.45101628398 Dipole_moment: 9.012
 S           0.55060986278516   -0.34957666051273    2.07223513516476
O           1.11372738307829    0.82590098027386    1.39071428506136
O          -0.34686357998770    0.00232607610482    3.13030102467082
O          -0.06983694596344   -1.24012799896547    1.06858002211155
O           1.76801499027089   -1.12139286395237    2.67843350736040
O          -2.28702558812170    1.16998753286019   -0.78335488283572
H          -3.11489964023038    1.62433260345866   -0.94379716007648
O           1.42098150743437   -0.15002732105483   -2.36062303452558
H           1.64984758667217   -0.40186193190325   -3.25572254558108
O          -2.44372353396506   -0.12822868448185    1.46818928510139
H          -1.76812240969366   -0.80492111607688    1.27791238823447
H          -2.38769093773942    0.71989714426046    0.10491542084364
H          -2.10763040968084    0.24233449569502    2.29748709955670
O          -0.83183957062819   -1.17979654177524   -1.51403015159025
H           0.60304923976754   -0.66456623875917   -2.12053956151740
H          -0.59662609120549   -1.35278527165930   -0.58264999247247
H          -1.51504229618869   -0.49748580113100   -1.47814951998248
O           2.37567459019350   -1.57683846695011    0.06446493450783
H           1.42993038705871   -1.65729126533491    0.27256606161636
H           2.41974155147503   -0.99672113854701   -0.70437272483021
H           2.32116378448107   -1.32223848348058    1.90812943541975
N           0.35710522332981    1.79772085108638   -0.82303486496075
H           0.67353542287824    1.38645531810319    0.14872830716645
H           0.83394524280733    1.22355299774434   -1.54560663132549
H          -0.67342812075032    1.67821096063858   -0.88597891024420
H           0.62540235191086    2.77314082437197   -0.88479692688235
