    26
        -50.46138089  Gyration_radius:  2.45024996983 Dipole_moment: 8.990
 S           0.22596267455250    2.11107862662544   -0.43635054526096
O           0.75555637671020    1.60001736465119    0.83698241917384
O          -0.68258408927784    3.32923279379273   -0.06779182532458
O           1.25715211387521    2.55548802417091   -1.32449950809718
O          -0.64958940770335    1.08682151403356   -1.04360932621310
O           1.60471935994288   -1.92505807424201   -0.96627532222576
H           2.25595226904083   -2.51874460232047   -1.34177276059152
O          -1.51610806600054   -1.36797165073019    1.85462164431192
H          -2.14196910172243   -1.99855846108679    2.21188157315009
O          -1.21694966791093   -1.52675715577259   -0.74140069892973
H          -1.55152334543661   -1.46221249850437    0.86417072224404
H          -1.12352508456570   -0.57891129323456   -0.95566864479750
H          -0.35944479967678   -1.91822576440663   -0.95352514924095
O          -2.24408693041461    1.40985138553899    1.06729249053288
H          -1.34580528657824    2.94959380419419    0.52876208535755
H          -1.87266933318805    1.15970336704682    0.20490646115863
H          -2.03404363813962    0.67753769069025    1.65817314256903
O           1.36050286633873    0.15946299110632   -2.50682753464127
H           0.44953730393103    0.40186045477480   -2.25992876575093
H           1.57602527782695   -1.12919702958865   -1.57285167348792
H           1.82976952128067    0.98591129926675   -2.31702627660235
N           1.10058248743382   -0.82889769661817    1.46863830334426
H           1.37549308511214   -1.34443677894279    0.60898906549596
H           0.97073271520299    0.22779284797033    1.18644967980245
H           0.17108396192585   -1.14982914953790    1.80358776482267
H           1.80522871743865   -0.90555201887399    2.19307268919885
