    26
        -50.46138007  Gyration_radius:  2.45062913007 Dipole_moment: 8.997
 S          -1.59165401772415    0.93822410583451    1.13870926373348
O          -0.92723275461534    1.72638121282732    0.08956844485536
O          -1.53057639855914    1.80894884215597    2.43625303164475
O          -2.96191495422068    0.65739749649287    0.83474723917909
O          -0.80157563162338   -0.28347401642932    1.40025683169843
O           2.72478821360437    0.42149169482040   -0.09306036843907
H           3.66339624960239    0.23567412729449   -0.05543125830690
O          -0.39783856291723   -1.65236334749389   -2.07916685069579
H          -0.65682449433684   -2.20072387953615   -2.82061747797956
O           1.14233555106116    1.32769016993697    2.25206744785468
H           0.58538031705372    0.55641794906954    2.05403077366653
H           1.76223077072180    1.39064404593745    1.51621503490627
H          -0.58170964603911    1.95226195742283    2.57391204866326
O          -2.29266676034011   -1.67695102647474   -0.29338528677496
H          -1.74366873058956   -1.46723767209707    0.48442704780363
H          -1.17032329984185   -1.66716615720594   -1.44297452269997
H          -2.95805566574318   -0.97451929516834   -0.24630417931167
O           1.21093094853965   -1.68108201093833    0.28282338748059
H           0.49232558001559   -1.27675532685254    0.80523178533531
H           0.79802172651096   -1.94565360985584   -0.54976351954214
H           2.25754270105471   -0.42456249138685    0.14603772773458
N           0.61142200913211    0.84567297016873   -1.71962163621433
H           0.27025858918130   -0.09670006497229   -1.99468979735543
H           1.54393306899806    0.77675785021842   -1.26754907092623
H           0.62484263992652    1.48368728371067   -2.50701919810190
H          -0.07336745884995    1.22593918252364   -0.94469690820685
