    26
        -50.46214872  Gyration_radius:  2.45489288283 Dipole_moment: 8.524
 S          -0.37222140738090    0.51380275459336    2.04080717331168
O           0.10294379045995   -0.37300225967684    3.06758681155081
O          -1.36876742674571    1.52912035650243    2.69753284897293
O           0.70121390627351    1.31922497041198    1.44493636536724
O          -1.10311103252713   -0.20151198130922    0.98809134399773
O          -0.52429150793736    1.26395329536375   -2.42729802524715
H          -0.76291637715981    1.36855507360553   -3.34880401837967
O           1.58284365859707   -1.95641701189807   -0.70404565558636
H           2.31866387933073   -2.56693246275454   -0.76885758002614
O          -1.90320556190580    2.14036813783868    0.05836079795635
H          -1.66112023374946    2.08362357762363    1.96240186892163
H          -1.47148912955849    2.26957575071359   -0.79292061861756
H          -1.77472220230619    1.19807797862567    0.26564290620115
O           0.43173862285326   -2.49999172563252    1.56820141916813
H          -0.49631418309290   -2.65631228883173    1.37382042214434
H           0.41617917911730   -1.75426458115370    2.21250301542847
H           1.15966775448147   -2.14181353827863    0.18533724951045
O          -1.02052191776899   -1.13767068191252   -1.50099994407484
H          -0.19297091970251   -1.63455652330345   -1.47842842012828
H          -1.17722989594336   -0.87418742842356   -0.57210633385942
H          -0.84867422152829    0.36351495658194   -2.15036493079914
N           1.61531141257465    0.75206324625673   -0.85071689801843
H           1.70148451670934   -0.28685240601906   -0.86311097524717
H           0.91430454607774    1.06095100520883   -1.55344819059374
H           1.22211625981009    1.01700174279152    0.14172514481260
H           2.51108851100429    1.20368003305655   -0.99584577677344
