    26
        -50.46137959  Gyration_radius:  2.45104874587 Dipole_moment: 9.013
 S          -1.60596834756533    1.32720301761609    0.61653509614438
O          -0.76353528156051    0.72187393424562    1.65927161306251
O          -2.95809313259182    0.85942738956909    0.65787535678404
O          -1.59551446379961    2.86636575735150    0.89259244201710
O          -0.96913221527522    1.11979371758303   -0.70134287002035
O          -0.33313714198893   -2.58784106965962   -0.63579190091446
H          -0.56483796758920   -3.50116448134572   -0.80813375126890
O           2.74832739596968    0.24018509304884    0.05863926529730
H           3.65551584139959    0.24299845062300   -0.24798634571963
O           1.02299808246310    2.65601568872390    0.17845861850865
H           1.72259749710253    2.04567511398521    0.43852729404556
H           0.41717028021559    2.13347780404442   -0.37300628437626
H          -0.65659133539668    3.10303086162317    0.84765184385805
O          -2.39922980099019   -1.07562609867896   -1.10848630318036
H          -1.16651135657665   -2.05741334740175   -0.79682313050411
H          -1.91815151945808   -0.24732300243815   -1.29032692798789
H          -2.99847816291546   -0.79172797649517   -0.40256629951363
O           1.00377232963177   -0.34622169486657   -1.80272708531292
H           0.65743290311282   -1.23731729164895   -1.66275902725061
H           0.27699059148297    0.25208039050957   -1.54478608363072
H           2.17728156736865    0.09355943771483   -0.74375479315731
N           0.86857858955492   -1.19291474508149    1.36332548416162
H           0.46847899916948   -1.84414395841314    0.65897952031982
H           1.73633748076954   -0.75291343383897    0.99920738092988
H           0.14510225654446   -0.37285682240351    1.49594264774256
H           1.02859691092162   -1.65422271436456    2.25148422996249
