    26
        -50.46138150  Gyration_radius:  2.44989691461 Dipole_moment: 8.979
 S           1.92843526309698   -0.98197608321158    0.07411957133701
O           3.36756602597842   -0.42369477517609   -0.17563236940252
O           1.43791546083506   -0.31069261661918    1.28728742880210
O           1.09886506917169   -0.57078355521771   -1.07765774959706
O           2.00420373618665   -2.40417171062710    0.22298555017631
O          -2.35273205536670   -1.27116550538921    0.24607239280091
H          -3.12413856438587   -1.82262535810181    0.38166249188502
O          -0.74448502367498    2.65465296852245    0.09514813736777
H          -1.15576246304728    3.48045931963573   -0.16164812728913
O           2.02989166761553    1.89429218792549   -0.67785235986844
H           3.23158799109263    0.53224527630272   -0.26201410503573
H           1.60609065035021    1.10306821780086   -1.05003041711513
H           1.33427644075816    2.35179119418727   -0.19168966275378
O          -0.44723091007985   -2.71046808407046   -0.79133139273759
H           0.03109396493409   -1.99283653623457   -1.24402822633707
H          -1.64267635370503   -1.87628700993932   -0.11731718064743
H           0.25793120911779   -3.08280904373302   -0.23972284433404
O          -1.24390559264045    0.66919078006890   -1.53689302928247
H          -1.85701684502670    0.04628169715224   -1.12515565198944
H          -0.93024590969215    2.00518752875862   -0.63609412647424
H          -0.37672652534157    0.22078962337686   -1.52074137925074
N          -0.92060108867680    0.50611912055720    1.72001100677780
H          -0.96327348177081    1.44076584009945    1.26880936645635
H          -1.57451964559341   -0.15373938078524    1.25357384910111
H           0.09982957938115    0.13205361516246    1.54133497387426
H          -1.09437261952176    0.56435226955410    2.71680386353576
