    26
        -50.46138022  Gyration_radius:  2.45059406606 Dipole_moment: 8.999
 S          -0.36907225612782    0.93005958476224   -1.92582758115847
O          -0.51619731116615    0.12584900638051   -3.10082698789082
O           1.00610480180471    0.92669436700310   -1.40410470615039
O          -0.68921796897452    2.41712154952630   -2.28818851241700
O          -1.29823946201580    0.53865078907353   -0.84476018010250
O           0.70114877226062    1.02674686103039    2.46189992133508
H           0.66614678303368    1.20677508222520    3.40178860593948
O           0.29803765772839   -2.64294308891614    0.37427417224373
H           0.41545149144381   -3.59351290556836    0.38599393602431
O          -0.55388088627248    2.77028591597611    0.40720720268234
H           0.09526322424959    2.48988284865137    1.06268857647876
H          -0.56967624199968    2.88952678549717   -1.45009105546704
H          -1.01367212552984    1.95821147634447    0.13638199934464
O          -1.20601206777829   -0.55366136288341    1.61476207995649
H          -0.84507570712275   -1.42515798417922    1.40516223398361
H          -0.11169903636396    0.49470812785392    2.24372764487142
H          -1.39203810683167   -0.14131571937212    0.74975774679780
O          -1.23189973275107   -1.99391060878785   -1.63004542324192
H          -0.26316599072999   -2.44490195003479   -0.43051009865418
H          -0.86567918953469   -1.69551318260006   -2.47572059605431
H          -1.57507399310291   -1.15605390175989   -1.26878788762226
N           1.88831341717070   -0.44442523724599    0.53454210417550
H           1.39357241779065   -1.35834699617393    0.52825652135883
H           2.89166820020253   -0.56103305408153    0.45144115087025
H           1.50944980297912    0.13655074299850   -0.32146694397511
H           1.63544351764103    0.09971284427857    1.38244605666908
