    26
        -50.45450917  Gyration_radius:  2.45159265758 Dipole_moment: 5.286
 S          -0.44612936959271    1.82197172799244    0.91720134673062
O           0.31250806456268    2.05677041364383   -0.39989265462369
O           0.13355571533554    2.64677537072167    1.91437982582654
O          -1.89521757786372    2.25564538288354    0.60640235542881
O          -0.46811099844727    0.40048071284410    1.21082238766563
O          -1.82210655761076   -1.56030782067778   -1.38462860272644
H          -2.19269765145233   -2.31269744569575   -1.84737191190245
O           2.22792986823300   -1.13077328023769   -0.76695880321720
H           3.07817807353568   -1.25100873361241   -1.19164381087433
O          -3.09695082383728   -0.01757834121510    0.45728059291822
H          -2.45897075128844    1.43086817889803    0.49202647858214
H          -2.76810050564784   -0.50656249622517   -0.32371660226267
H          -2.60036742307195   -0.36992256742803    1.20340093135904
O          -0.05543622340174   -2.15200491125460    0.43614493532234
H          -0.17855022218785   -1.30124225915711    0.89247833582391
H           0.81930244371758   -2.07946506927118    0.02569965799767
H          -1.19219247993933   -1.91804030136460   -0.69525876924942
O           0.20414955591163    0.14882675218174   -2.04970653223575
H          -0.59640115709547   -0.39398290666204   -1.92944399199153
H           0.20830265367496    1.30868405498669   -1.09811311558541
H           0.95189753970698   -0.37811147803122   -1.69778096608869
N           2.42847833995582    0.72864949533842    1.13438937444870
H           2.42010613574807    1.64344824606709    0.69757519438425
H           2.35997100856859   -0.44963237523278   -0.04550985956597
H           3.11364179108781    0.75238155243589    1.88056853207550
H           1.51321055397767    0.62682808727682    1.56165567140301
