    26
        -50.45450933  Gyration_radius:  2.45187981631 Dipole_moment: 5.292
 S           0.82423281609322    1.70679376429011    0.87738552374976
O           0.56139530769757    2.95742993003382    0.01045430960158
O          -0.54156791477048    1.38604862370673    1.50739093644553
O           1.20579533476923    0.62757040270772   -0.01536968670126
O           1.73813092791412    1.99127608159788    1.92372190084616
O          -0.80123368024020   -2.30254959233158    0.94412187713771
H          -1.25543707205063   -2.94580315164966    1.48970062695072
O          -1.19571564409130   -0.07327788700037   -2.49617312751013
H          -1.59350783181906   -0.42813063329462   -3.29203354812859
O           0.60400304250793    1.96177740597490   -2.36484320194506
H           1.34801452205200    1.38871541878918   -2.15186696318907
H          -0.15921764435599    1.36032070483457   -2.47850791279353
H           0.52211745301388    2.67599276138122   -0.95403027267171
O           0.57140599420253   -1.61977170545355   -1.36912044997284
H           0.98023602426658   -0.87648307665631   -0.89201607098557
H          -0.51615736998399   -0.73720469390304   -2.18379025812775
H           0.11537450454240   -2.12561249479449   -0.67983899172623
O          -2.06227892859028   -0.05127586198751    0.09502008403491
H          -1.18570954522897    0.86009427230126    0.90178729611615
H          -1.87014821941084    0.03952704455453   -0.85625502083188
H          -1.71492323397797   -0.92669451169321    0.36602423806466
N           0.96595907425043   -0.95822741871805    2.42091068993202
H          -0.13160017578861   -1.84723837056365    1.53261987211595
H           1.44130061177660   -0.44698063649800    1.68377398580941
H           0.47333516844056   -0.25507533514199    2.96005717479120
H           1.67619647824137   -1.36122104070140    3.02087695878238
