    26
        -50.45450940  Gyration_radius:  2.45178785292 Dipole_moment: 5.289
 S          -0.09265649268070    1.91307391220425    0.83163444957121
O           0.68248623104072    2.68606600111358    1.73305247619295
O           0.58547023812823    1.96162677723047   -0.54797135225586
O          -0.30603834669459    0.52863128809488    1.21247437830981
O          -1.47952582293854    2.55096077559816    0.59874442496721
O          -2.13875085724911   -1.32601419302026   -1.15590572402070
H          -2.65443276659766   -2.03390036154004   -1.54370119775282
O           1.96494877298869   -1.50217799169831   -0.84610214748480
H           2.75214388554332   -1.77954094673211   -1.31638029233332
O          -3.02015170560267    0.48781267612712    0.66878546936291
H          -2.82825880499173   -0.08551796986367   -0.10049992398029
H          -2.53153447023364    0.09925610405024    1.40193000874620
H          -2.16828716975470    1.81888155827215    0.57296606172343
O          -0.34633403682258   -2.09265691859697    0.57161717563786
H          -1.51854656063771   -1.74193840280215   -0.49068397424439
H          -0.30385740092938   -1.21108123129883    0.98181488807131
H           0.49481200564317   -2.17739379904695    0.09803840841769
O           0.06544718858237    0.01072898412529   -2.06374758677455
H          -0.79626694932076   -0.39416774320229   -1.85536747312408
H           0.31703833944215    1.20305709719975   -1.18877837739787
H           0.74999178001231   -0.60738417714053   -1.73231738097691
N           2.59228106636134    0.40086525700426    0.91358398629273
H           2.25466295048211   -0.81288755215853   -0.18059640214559
H           2.68585478258062    1.28185316904396    0.42082102024588
H           1.70904536640019    0.46358291401559    1.41011375401573
H           3.33045877720117    0.35826479297624    1.60647532096903
