    26
        -50.45450930  Gyration_radius:  2.45175401095 Dipole_moment: 5.291
 S           1.82314560741054    0.36098376439723    0.95234196344036
O           1.86076918526595    0.88373232844845   -0.49357042238442
O           0.47354248979098   -0.06773059772710    1.27214092609174
O           2.71783818089720   -0.89734247417764    0.92738988590955
O           2.36729813631621    1.36059057288834    1.79824463714731
O          -0.81760701244021   -2.46391684626732   -0.96788084447503
H          -1.38611695378409   -3.14308439185793   -1.33267224637538
O          -1.75599251818453    1.54281482445325   -1.16907597285819
H          -2.12922365684516    2.20822384295131   -1.74857589788446
O          -2.03479964904212   -0.67239149230203    0.47958473551788
H          -1.21253547696286   -0.41963473289178    0.93481751796463
H          -1.39233304473244   -1.86545006038015   -0.40976521729689
H          -2.23145990160100    0.08142338425865   -0.09657258933878
O           0.96730452467450   -2.78201541574175    1.05962114508301
H           0.43513861725340   -2.78799286180636    0.23869649646074
H           2.12695467418519   -1.71087179853095    0.94135268625145
H           0.43789906142992   -2.29570103007918    1.70041080082786
O           0.16935401056254   -0.15726755528684   -2.05221640057308
H          -0.58743661766713    0.42990377417864   -1.84459211989863
H           1.21946763103492    0.40875547290954   -1.14252180790518
H          -0.08890322280279   -1.05254553896625   -1.76646285365034
N          -0.15187580600481    2.70431755828195    0.61718937210893
H           0.73552430120814    2.91014384635110    0.17230946277779
H          -1.18899668475809    2.02743761084870   -0.50161600696707
H           0.02830979768260    1.90701193591441    1.21923126637626
H          -0.38526567288768    3.49060590022218    1.21219150363184
