    26
        -50.45450929  Gyration_radius:  2.45207520335 Dipole_moment: 5.291
 S          -0.16107093649507    1.77243127031661    1.09375008373624
O          -0.22886698461844    1.31055014429106   -0.28071904977019
O          -1.60901314218942    1.99327297265827    1.58273458298144
O           0.37341450280751    0.63856598636072    1.98497525214795
O           0.63627018235727    2.92363216452362    1.31707066753671
O          -2.12845053003865   -1.62912192643963   -0.69613422019900
H          -2.62153168947124   -2.33132084123592   -1.12188852460220
O           1.98619676187754   -1.61599836549177   -0.52866555528951
H           2.74410337139656   -2.18819412264632   -0.40227369895441
O          -2.97179880544464    0.93009758142980   -0.32734378431590
H          -2.80895593937706   -0.03445601840912   -0.34611695641001
H          -2.23824335685031    1.57826131244397    0.91741588099263
H          -2.38962644521208    1.29808153275979   -1.00027261430347
O          -0.13300058923417   -1.69653746743627    1.16950963873306
H           0.10580507757110   -0.30932388610651    1.68838489458805
H          -0.93643457415132   -1.72474405660023    0.61841880903345
H           0.62636020188170   -1.79724848249136    0.55826659558520
O          -0.12604141369323   -0.69961641052173   -2.07837009547496
H           0.67009938593304   -1.16700701651662   -1.78400647902842
H          -0.11364936207949    0.13564270840277   -1.57886571249961
H          -1.41738965499716   -1.33691437689280   -1.33580215064742
N           2.62831651122772    0.88813178684793    0.12616672693453
H           2.28391069703473   -0.68829587463735   -0.29942110012960
H           1.79524900186729    1.36387089111206   -0.20595390230727
H           2.60310139204177    0.97715034955790    1.13571766305062
H           3.43124634868824    1.40909010474369   -0.20657693186310
