    26
        -50.46138052  Gyration_radius:  2.45041214677 Dipole_moment: 8.997
 S           1.17262658734456    1.41733721094708    1.14925430913766
O           2.51732023041271    1.10323898716773    1.52684852774806
O           0.17816304212208    0.59684460012602    1.85721578185704
O           0.86989126518414    2.89936777581852    1.54558899373099
O           0.94612491204286    1.30402461985643   -0.30696944635601
O          -2.67189423270436   -0.09074931551639   -0.67947683387056
H          -3.45748780189233   -0.14799476034198   -1.22407558924272
O           0.86553944124788   -2.43177701853720   -0.74154210279582
H           1.26551283181476   -3.28260934513126   -0.92512593027068
O          -0.43391938447713   -0.23682082036523   -2.02993851341437
H          -1.89527248763337   -0.06979353577146   -1.30209345547391
H           0.10427055817865    0.40587756319846   -1.52970064748788
H          -0.01010766030942   -1.09174900648607   -1.87786017484412
O          -1.40685272879328    2.48193870544443    0.11456729358364
H          -2.05228481063173    1.76583924615327    0.12503567865094
H          -0.04695637891832    3.03169027741005    1.25948668454439
H          -0.60905438508690    2.10366747687533   -0.29108872269495
O           2.73955607578778   -0.64203951861877   -0.48946857697128
H           2.21090901238513    0.13889063657460   -0.73571061096670
H           1.62504097901367   -1.79156319036038   -0.61775005259845
H           3.07256607507778   -0.37422619542241    0.38010575622788
N          -1.01314886378318   -1.45073139111568    0.95983765428858
H          -1.81037330280052   -1.07476362928255    0.41021787416227
H          -0.35032686615786   -1.95676022201973    0.33956362393199
H          -0.48003404055862   -0.57261157370837    1.35765948752455
H          -1.32980808687175   -2.03452756689741    1.72541897159522
