    26
        -50.45450936  Gyration_radius:  2.4516879158 Dipole_moment: 5.292
 S           0.26542101551721    2.06101758439061   -0.20177806466605
O           0.74208646258868    0.82083844645784   -0.78664831197573
O           1.26630472443310    3.01098261478091    0.12487498606617
O          -0.77930460483160    2.66018151158684   -1.16832255145227
O          -0.53273532192910    1.74688431806616    1.07473877098933
O          -1.81613159483746   -1.50804902583591   -1.44762227646578
H          -2.26867854282849   -2.27480900072081   -1.80080737282404
O           0.61835511978828   -1.71991421869844    1.86837701534425
H           0.69449119443823   -2.12781675954052    2.73184427160131
O          -1.68151580566514   -0.50126341772915    1.08974879662240
H          -1.05700407395798    0.86225223488425    1.04993372153465
H          -1.87855747535066   -0.81700861861041    0.18894948769275
H          -0.92789046300681   -1.03782258634797    1.41320475776323
O           0.70405722215157   -1.87545639355698   -0.90082208200880
H           0.89382677649992   -0.92146723898992   -0.93518626013130
H          -0.85873778656119   -1.76466715250750   -1.31496323360971
H           0.76670565511856   -2.09844902437870    0.04010648999071
O          -1.11781035674426    0.72499067347493   -2.83420022775138
H          -1.01559301436499    1.96517574208226   -1.85553419018107
H          -0.17777294675909    0.51633508421713   -2.84234627084185
H          -1.54377288949331   -0.02615450952362   -2.37414515643961
N           2.03540482670953    0.53873248512815    1.81204905951368
H           1.50513952218494    1.26821573458912    2.27508082192940
H           3.00533616188652    0.64550657925048    2.08524718157991
H           1.18710168538755   -0.89649747602948    1.88742677602850
H           1.97127450961203    0.74826241360040    0.82079386173958
