    26
        -50.45450932  Gyration_radius:  2.45179828917 Dipole_moment: 5.292
 S          -0.66557442872795    1.82218190890655    0.77373497060251
O          -0.11595201971880    2.88253322331492    1.53825131172518
O          -0.33199510912735    0.48301462397285    1.22423922895860
O          -2.20518134766082    1.92083268445010    0.70708597216521
O          -0.20915422753165    1.99561793521612   -0.68471432179934
O          -1.65119219855090   -2.06805211002934   -0.81388575342912
H          -1.92430175852169   -2.93823426888636   -1.10667338244800
O           2.25671619967687   -0.79231094660619   -1.05405071528357
H           3.03185869909892   -0.81730467491923   -1.61650163967325
O          -2.90028394241724   -0.53494271149183    1.05282315543496
H          -2.58959609418748    0.99611055769975    0.79890906312454
H          -2.60809327671212   -1.06475303425798    0.28387959752879
H          -2.22511009077523   -0.67217927598834    1.72554155487318
O           0.48149538385664   -2.03248240531342    0.68102057649324
H           0.25733967835705   -1.16152777759489    1.05308093239355
H           1.23800904816160   -1.85795088846195    0.10116125260473
H          -0.85230770664911   -2.19146454069135   -0.22493698996626
O          -0.18046953289348   -0.12620653018430   -2.05285832789126
H           0.71123324096667   -0.44240663475778   -1.79724900721617
H          -0.81397157729554   -0.78638361973292   -1.71694271527930
H          -0.26552360314720    1.14409188279696   -1.25881844954648
N           2.37182900619495    1.33982534719909    0.54375925904829
H           2.35986696485396    0.00372838202423   -0.45606419238362
H           2.09770785105751    2.16000184139136    0.01473502880680
H           1.58256600881557    1.13389822110996    1.14815767945226
H           3.15008482153781    1.60436280026390    1.13631592108652
