    26
        -50.45450940  Gyration_radius:  2.45168114767 Dipole_moment: 5.290
 S          -0.09133837880659   -2.05183661029311   -0.37567497938681
O          -0.64867593916623   -0.80889775634579   -0.87739177806533
O           1.02778902436088   -2.48593720528812   -1.34711186826003
O           0.63930305454635   -1.78231688319046    0.95068579701755
O          -1.02144735878673   -3.10087603041403   -0.16291983480508
O           1.73125032012412    1.76015106198180   -1.25312755299903
H           2.13045786697978    2.58633165646186   -1.52799184286289
O          -0.81374338972003    1.50649883866233    1.97463497426398
H          -0.95013089217248    1.83489642476692    2.86418145614068
O          -0.82623366112432    1.88234750211321   -0.77436979897833
H          -0.93582170664919    2.02133870084812    0.17835674649683
H          -0.93680553170253    0.92255500131402   -0.89186868449314
H           0.75242602270735    1.92883078720313   -1.13655993769070
O           1.26116551006140   -0.39890327158189   -2.83841794520179
H           1.60983641541550    0.34289280176309   -2.30404621256176
H           1.22890416155006   -1.72005562760313   -1.96687499054907
H           0.30799402062400   -0.26457791157703   -2.86579941225152
O           1.60084875993794    0.54006288769979    1.18902532463198
H           1.79955248202838    0.94365454226701    0.32439378757453
H           0.79646931591637    0.98737014039270    1.52559819327460
H           1.09060971384658   -0.86044548242009    1.01648959862531
N          -2.03940805463563   -0.84440969127585    1.68586827556025
H          -1.31406213209725    0.64223325568976    1.90660944316094
H          -1.93023895701182   -0.96518052455125    0.68382335178433
H          -1.46412371040150   -1.56516200972558    2.10691470769742
H          -3.00457693553655   -1.05056457673475    1.91557318172362
