    26
        -50.45450938  Gyration_radius:  2.45189636447 Dipole_moment: 5.288
 S          -0.49932725872220    1.79732964833808    0.93921949982144
O           0.33362065600814    2.06734608233309   -0.32518121149817
O           0.02246159248345    2.59235004486148    1.99118906209526
O          -1.92798047199663    2.24268606555893    0.55839011620475
O          -0.53871481817517    0.36822327737036    1.19105271209223
O          -1.73684560367887   -1.51828589310539   -1.53250580020103
H          -2.08195044704833   -2.25706734607435   -2.03504027100492
O           2.26939911124928   -1.11558656886310   -0.66296333434194
H           3.14419081351471   -1.23155214544607   -1.03586444648221
O          -3.11911123377295   -0.02261425929636    0.26966184207667
H          -2.48364868807782    1.42263724426053    0.38544851830632
H          -2.74262392968191   -0.49087965932236   -0.50259274038462
H          -2.67200833881955   -0.39802633410283    1.03547834462993
O          -0.08239176672187   -2.16325259027257    0.37331455204105
H          -1.14920244249378   -1.89590240904827   -0.81687893140335
H          -0.23223498425727   -1.32510803695741    0.84487670142724
H           0.81531968119409   -2.08092243696528    0.01792204201208
O           0.32683785560693    0.20389356533430   -2.02876563352115
H           0.27286459094529    1.33764212912638   -1.04748473333400
H           1.05216465524928   -0.33387907020226   -1.64769258232943
H          -0.47947844132864   -0.34061260062288   -1.97160644189280
N           2.35789668081401    0.69417221100611    1.29383013506021
H           2.35920309338508   -0.45344321084883    0.08224939893025
H           2.37737175568027    1.62001067374417    0.88128146868614
H           1.41811061711829    0.58399252671502    1.66172994995459
H           2.99607746182440    0.69684910074779    2.08093182203549
