    26
        -50.45450931  Gyration_radius:  2.45173446548 Dipole_moment: 5.290
 S           0.33189086840161    2.01315981795226   -0.44386224137203
O           1.06924225118387    1.11440252879505   -1.45067377820586
O          -0.33402132813520    3.03482722486767   -1.16746537569527
O          -0.51215018859392    1.19111944118038    0.40428717681144
O           1.45450632179492    2.59652304035822    0.44150296409471
O           1.22772075648301   -1.38651282786159    2.05815116086048
H           1.42052122184145   -2.09015509282428    2.67879316609550
O          -0.99561302766454   -2.00236674139616   -1.35377210330582
H          -1.14125151022869   -2.62879103484399   -2.06381782018648
O          -1.26083761442315   -1.24137410902240    1.30221957440332
H          -1.16819483584574   -0.31131215750880    1.03075681461999
H           0.24475901002522   -1.41390299649374    1.87616832547622
H          -1.33882777634215   -1.72783627248058    0.46782750880718
O           1.13544957206148    1.27138897669347    2.62687728422330
H           1.44537784906353    2.11925265217585    1.32655518553357
H           0.17606732807873    1.32683214229493    2.56516001911673
H           1.34908595484760    0.32992790374052    2.46768538989134
O           1.51626714717494   -1.23964230555570   -0.65571049238773
H           1.56889754848226   -1.29274669579083    0.31606897996390
H           0.65642487294843   -1.63597804420368   -0.90906132287486
H           1.31250907124161    0.17878095891090   -1.09885680223871
N          -1.69747960029222    0.44299844468047   -2.15355782861799
H          -0.95659975921792    0.82237618510280   -2.73225372343548
H          -2.58022466215651    0.70618736555017   -2.57579859907455
H          -1.30001959837709   -1.11000450585514   -1.68979615542633
H          -1.62349985263173    0.93284612138922   -1.26742730670345
