    26
        -50.46138200  Gyration_radius:  2.44974690454 Dipole_moment: 8.973
 S           0.97172312817713    1.88282209966747    0.43922390530468
O           0.65459312263186    1.24042087406098   -0.85309318281055
O           2.37720824016780    1.91633254204252    0.71154953823713
O           0.43746248282826    3.35054243694933    0.36410822407275
O           0.20343868054712    1.22586947363091    1.50737328073874
O          -2.65400294800146   -0.71936700035881   -0.22653616893165
H          -3.45641423247130   -1.07865858874286   -0.60612199731299
O           1.24930600412951   -2.37696454055085   -0.00804266535395
H           1.78880602215011   -3.16596512013395    0.05505205771825
O          -1.83382309024146    2.13282045965785   -0.51578608169553
H          -2.32857961639127    1.37919822173951   -0.17414739929264
H          -0.50836219359503    3.24160884805932    0.18142093307560
H          -1.01580565075668    1.75860108667955   -0.88320133553675
O          -0.54388227855807   -0.99299067762777   -1.75254990728692
H          -0.09859264519352   -0.14320398763598   -1.57083017874923
H           0.04424864963536   -1.66805222971235   -1.38947978018280
H          -1.94829456086867   -0.80096728061070   -0.92380539958674
O           2.76652793940739   -0.35565325662354   -0.63327959161684
H           2.08917556074703    0.18991397681972   -1.07128359740434
H           1.88116559640960   -1.62760657185580   -0.21249548765483
H           3.08595043173915    0.25834744014152    0.04619254523221
N          -0.64207967055051   -1.16204685058984    1.51765361904230
H          -0.77963542017618   -1.48187654385584    2.46947969025218
H           0.05374639106772   -1.74611322835532    1.01235060780324
H          -1.53769926568770   -1.12644285619400    0.99259571965711
H          -0.25618065714931   -0.13056876659993    1.52365266228201
