    26
        -50.46137988  Gyration_radius:  2.45086332568 Dipole_moment: 9.009
 S          -1.66593809453814   -0.51433919423165    1.29488480820013
O          -3.08819812773525    0.12457296947619    1.41467076332950
O          -1.62294427878692   -1.70030288879068    2.09524030518147
O          -1.43223348780211   -0.78358887106971   -0.13974712359739
O          -0.71918552757816    0.51407969064361    1.75249950877336
O           0.60279370752477    2.26559917364736   -1.45449217632017
H           0.83275273212928    2.81629692798315   -2.20341362949657
O           2.27591814346646   -1.41486051686821   -0.17446090151944
H           3.05088055167047   -1.97635069388431   -0.13315380890820
O          -2.18879783736656    1.73175773036803   -0.58919845587970
H          -3.03650463407369    0.91097196293304    0.85013359760638
H          -1.37069900703278    2.22854633442688   -0.70553490371023
H          -1.93909539876893    0.79777108181570   -0.68682397798358
O           0.16962867863782   -2.81418474797170    0.44596271927102
H           1.50515430237552   -1.98840051094957    0.10618044142109
H          -0.49111275528536   -2.27457125622327   -0.02591708544992
H          -0.19732429909610   -2.81627381772158    1.34232191352387
O           0.42008982484976   -0.28172066814034   -2.02933949100349
H           1.17612202124165   -0.75896568925219   -1.66286520066695
H          -0.33455042576214   -0.52702018399404   -1.46094042497562
H           0.47789719940777    1.34300798537245   -1.80752053138026
N           1.54995760133306    1.03442864383563    0.75394577792278
H           1.96418369388689    0.13980501312951    0.42501716459264
H           1.35161089066991    1.66033282979110   -0.05099598780330
H           0.57147001602270    0.79513982256344    1.20016320345956
H           2.13812451060918    1.48826890311195    1.44338349541170
