    26
        -50.45450939  Gyration_radius:  2.4518189859 Dipole_moment: 5.291
 S           0.48448567149331    1.61837377545443    1.22788579465365
O           0.35548596213239    1.29802501490624   -0.18209912333581
O           1.65978018616396    2.32268652243219    1.59325673522600
O          -0.78387739120497    2.39290079348037    1.64722440138390
O           0.42784248114522    0.32022062203241    2.05092427690021
O          -2.53855741544376   -0.55484334382020   -0.95618993755999
H          -3.23670876945632   -0.96497933355357   -1.46790933329719
O           1.18331081778401   -2.26657608257333   -0.54124872264315
H           1.62400794157901   -3.10811710896571   -0.41751799833502
O          -2.28345018364759    2.10008338536228   -0.42628692623543
H          -1.46445795958713    2.31533282576427    0.91103771190950
H          -1.54295557865399    2.22569036935065   -1.02881575574703
H          -2.53112084483895    1.15778612205227   -0.51651535865472
O          -0.92358101855142   -1.54363419689061    1.01422580220180
H          -1.61435353093168   -1.20541297260171    0.41554593904700
H          -0.22185972401388   -1.92034848272206    0.44317791941405
H          -0.18017274562019   -0.41215078956033    1.66133085138776
O          -0.21662647227696   -0.47652484751123   -2.13353492961373
H           0.28653738168270   -1.24760415903251   -1.83133262942749
H           0.09383162413619    0.25097867010661   -1.56640521356413
H          -1.71608618773446   -0.55404379062603   -1.52528629553160
N           2.73928400317775   -0.29460038077752    0.35453110188827
H           1.81501898103246   -1.56011859277481   -0.21911915601950
H           2.66811132989137   -0.25646517121857    1.36508243527188
H           3.71013726897666   -0.13752290165977    0.11038518651002
H           2.20597419273129    0.50086402333068    0.01765324418894
