    26
        -50.45450937  Gyration_radius:  2.4518518905 Dipole_moment: 5.292
 S          -0.14338153828633    1.79502513441878    1.05799905105204
O           0.58354578478037    2.44978727534139    2.08445465144297
O          -1.52140930400289    2.45694279689348    0.84043653485822
O           0.59925545035562    2.01500180223198   -0.27081313579912
O          -0.36644279610743    0.37396565715178    1.25292759128971
O          -2.07255795900954   -1.17324474992735   -1.41143101393215
H          -2.56454397502979   -1.82790786886124   -1.90831870412065
O           2.01090129359510   -1.38466435501626   -0.93282055962510
H           2.82135950403949   -1.60462068577554   -1.39396317684890
O          -3.05157172528358    0.40165382616682    0.57765300610551
H          -2.20376394681889    1.73389752207189    0.68985211977362
H          -2.81894914404173   -0.07260402300123   -0.24597040208602
H          -2.59840511201125   -0.07538388183871    1.28070448094113
O          -0.35929869395550   -2.14778159097894    0.29126010895790
H           0.50348283939298   -2.17148844705129   -0.14940215883811
H          -1.48174343864748   -1.66827221679819   -0.77409972823716
H          -0.34224709517239   -1.32409599707066    0.80940292212031
O           0.16170126858473    0.26884479504612   -2.04123857844584
H          -0.70593472692106   -0.15986973580938   -1.92539696060872
H           0.36522065678778    1.34279629211798   -1.01330816535775
H           0.83417172848687   -0.38538450334687   -1.75816103221671
N           2.54375128830655    0.28346906136643    1.07843646234518
H           2.65845705778212    1.21883944990495    0.70472699110225
H           3.24664408525947    0.15293878814222    1.79655469668479
H           1.63662904624060    0.28591534879028    1.53426692761290
H           2.26512946178125   -0.78375970405335   -0.17375194822040
