    26
        -50.45450929  Gyration_radius:  2.45164425687 Dipole_moment: 5.288
 S          -0.45610524439197    1.66676031956697    1.17260422555923
O          -0.55263332339627    1.22433294906002   -0.20665661376944
O          -1.85844728576624    1.53036601169777    1.80448201762716
O           0.41605965922997    0.67718103357503    1.96351918982380
O           0.06865481820236    2.96997020498496    1.36483026748376
O          -1.75477486414362   -2.07014727593691   -0.55597407922105
H          -2.11172611474129   -2.86189546439081   -0.95997988278706
O           2.24251855464075   -1.09859339325324   -0.77103584451270
H           3.12054476935876   -1.47979158659490   -0.73284947889217
O          -3.12251136917490    0.21812030509376   -0.01604016517561
H          -2.74768024836181   -0.68290732762040   -0.08564886194547
H          -2.43917065871666    0.99452182874006    1.18260115161574
H          -2.70232430107026    0.72178505701069   -0.72117956048146
O           0.37843478668344   -1.69900655846096    1.11148939265680
H          -0.44778894403389   -1.90469315700570    0.63710368475855
H           1.07568351705110   -1.61009278826844    0.42845024715613
H           0.34399538900251   -0.30252519491324    1.65848912446092
O          -0.16717924843866   -0.67842707986501   -2.08196524257809
H          -1.19724969473207   -1.61076741772053   -1.24746737505410
H           0.74059168378006   -0.95150554825822   -1.88111201264435
H          -0.29799071620390    0.12892914905773   -1.55440335624056
N           2.35010764135137    1.47767399534320   -0.08986326423842
H           2.33846619008166   -0.12998405414744   -0.53771112795083
H           2.97170752203808    2.17655319774660   -0.47971186664606
H           1.39976720859749    1.74902110515294   -0.32191637532431
H           2.40905027315286    1.54512168929381    0.91994581651738
