    26
        -50.45289445  Gyration_radius:  2.64831309269 Dipole_moment: 2.982
 S           0.13321018972273    0.06083545190574    0.80188973062245
O           0.80004101909645    0.72180605350593   -0.39979507885238
O           1.14484058879005   -0.30918820562888    1.76170470241488
O          -0.90627212061574    0.92062352941975    1.28252551994007
O          -0.49018491511021   -1.22793682182863    0.23144530569486
O           1.98365630461948   -2.52955824720769    0.46192477422140
H           1.14790666871767   -2.85105571606953    0.11400734746289
H           1.74586559249577   -1.89002547589400    1.15494334188098
O          -3.64565070813765    0.09569868735377   -1.59911628754391
H          -2.99538898326776    0.84929902004974   -1.56501500530738
H          -3.40037445031075   -0.44703055530990   -2.34988307965669
O           3.66298706308320    0.65677945156839    1.44990078346171
H           3.70376293925470    1.56891690871813    1.74015503321188
H           2.80798230415531    0.30369144424988    1.75532065677752
O           2.93408938973252   -0.44743995049522   -0.87924451040082
H           2.73850579236810   -1.35271790638675   -0.53690475944952
H           1.71361088276133    0.22770737932079   -0.66965746972752
H           3.48307059294047   -0.03060472773769   -0.18245105467871
O          -2.90671273632226   -0.88331926731436    0.72467083612334
H          -1.51748700005593   -1.18290997788595    0.40957906143175
H          -2.74032732739855   -0.08212907561888    1.23758142028672
H          -3.31585702354259   -0.57990098682512   -0.13134256696203
N          -1.73512366785838    1.94126000818235   -1.29126649071672
H          -0.89802666643465    1.79671019953842   -1.84371815449181
H          -1.47209030726610    1.74720587255533   -0.32664990233237
H          -1.97603343143360    2.92328292783049   -1.35060413341847
