    26
        -50.45450930  Gyration_radius:  2.45189307688 Dipole_moment: 5.292
 S          -0.29950868081508    1.93275759754686    0.73319791857961
O           0.33359538514611    2.79333763866564    1.66563180486027
O          -0.45229751363366    0.55194759577631    1.15451873002579
O          -1.69890795231572    2.45947656908178    0.34779248005681
O           0.49959415609626    1.97721612608679   -0.58012731613922
O          -1.92699976627075   -1.51952311818598   -1.28209550650670
H          -2.35401151615890   -2.27726795893283   -1.68332818801127
O           2.13164029972842   -1.38899772687451   -0.59911886999398
H           2.97587870907456   -1.62799588506983   -0.98378711084449
O          -3.09524004378163    0.29522349660314    0.37275336336331
H          -2.79472421365283   -0.29217455000943   -0.34972500597513
H          -2.65067544947749   -0.02857161144752    1.16316711700857
H          -2.33099335222003    1.67929557848600    0.29349927835560
O          -0.25466824657996   -2.08877917023356    0.63203515279234
H           0.63033049457334   -2.13060388533611    0.23947489441761
H          -1.34420456220039   -1.86399393319658   -0.54593467731936
H          -0.31031748711259   -1.19140140927885    1.00464165063327
O           0.25472074078018   -0.06252477236560   -2.04777765871047
H           0.94623792726616   -0.61695215352679   -1.62954072446495
H          -0.59288350177696   -0.52023730697334   -1.89912599116532
H           0.34353156992531    1.17759940745585   -1.20803188034185
N           2.46365404941507    0.61928615851612    1.12379829165590
H           2.31155353811348   -0.65606761853351    0.05840777957620
H           3.13076588589811    0.65187692337230    1.88581552281274
H           2.55052046119863    1.48536843065630    0.60415065520367
H           1.53340906961544    0.64170559834471    1.52970829986882
