    26
        -50.45480577  Gyration_radius:  2.47277373332 Dipole_moment: 9.356
 S          -0.39093855563345    0.55105511290207    2.04126284720900
O          -0.80692296482412    0.92986815126040    3.34505676686927
O          -1.10897114154204   -0.81740143558868    1.68673120521451
O          -0.71603252700547    1.46643567134781    0.95491003336344
O           1.06625222834425    0.23729516471465    1.94058587062144
O          -0.64578239061615    1.35097050787978   -2.10992653605530
H          -0.63730508111011    1.79300919033686   -2.95985250609769
O           1.61456733983273   -1.95244959413856   -0.99846565872148
H           2.17349817625273   -2.63163668826483   -1.37704989203447
O          -2.58966651342263    2.30730318938490   -0.61568676047544
H          -3.33246428885125    1.71881954934179   -0.46687411720469
H          -1.96817086146234    2.14181749349793    0.13144634069949
H          -1.38459555830291    1.76712258469781   -1.58915500590513
O           1.29557664716543   -2.34096268808465    1.55569282966994
H           1.31596821498916   -1.39829077148414    1.84735469898976
H           0.40572336649331   -2.63427572595613    1.77301123484237
H           1.53206820294366   -2.16966692810804   -0.02276577104865
O          -1.05389685182094   -1.14076544219287   -0.93935261096046
H          -1.15317686751667   -0.89838037487619    0.70381025593175
H          -1.02550948415044   -0.29971732733673   -1.42077726762690
H          -0.20563594711878   -1.57694330688344   -1.10957916961354
N           1.53769335065997    0.73338642965203   -0.49906198351471
H           1.34262405553236    0.60269433440509    0.58381618490911
H           1.72390190572768   -0.21480730941224   -0.87464783808353
H           0.68254714166895    1.12321027862142   -0.94038853505994
H           2.32864840376704    1.35230994428465   -0.64009459591701
