    26
        -50.45601912  Gyration_radius:  2.44963389809 Dipole_moment: 7.018
 S           1.05248471183079   -0.15349466266229    1.71637836166257
O          -0.17076676828207   -0.78892367077970    1.16529570382772
O           0.68480332048449    0.77550517872519    2.76344413485250
O           1.88190165530225   -1.31973178448814    2.33955873054372
O           1.84236904706516    0.46001754903203    0.66467505410232
O          -1.86744669058329    1.70112855151853   -0.75809011019409
H          -2.53431079885499    2.06014111694549   -1.34490113851288
O           0.65086469152553   -1.20218287497503   -2.48676222828126
H           1.07362045476050   -1.32303580161654   -3.33759784376167
O          -1.65439665041430   -0.87178378563799   -1.06903259456489
H          -1.83037559473707    0.71254793800827   -0.94289708659136
H          -1.02916276981041   -1.10359371959589   -1.77585996779861
H          -1.14134205359352   -1.03564503982361   -0.25587799618929
O           0.85256686365585    1.31051869042762   -1.64986413974515
H           0.79340008521872   -0.25334197086322   -2.23821059259768
H          -0.01235982753855    1.65623989989906   -1.39402084590927
H           1.30889286956552    1.10776219035339   -0.80851313749031
O           2.26673904617935   -2.00163559567964   -0.24199641774826
H           1.61528234224620   -2.07984008378956   -0.95441166162921
H           2.38680006313960   -1.04405602332603   -0.13621234149410
H           2.09431046295254   -1.87517688688782    1.56617167134340
N          -1.70516443895635    1.08962357239124    1.85176642991526
H          -1.30006899988005    0.12517314046736    1.56732114962613
H          -0.86439518407435    1.41340036397758    2.38504384238919
H          -1.85051704698433    1.60150249205644    0.95503571427626
H          -2.54372880021249    1.03888121632966    2.41955729997283
