    26
        -50.45831560  Gyration_radius:  2.40228774687 Dipole_moment: 9.941
 S           1.60044458261994    0.82489737132087   -1.13543861691376
O           1.33761888017190    0.75607238548577    0.30933257626330
O           0.36290284174111    1.26183089847312   -1.82515358923419
O           2.76077357392474    1.56853243266399   -1.48088943225139
O           1.71636369217428   -0.67507039112242   -1.62209737258069
O          -0.14555297788306   -2.38047991810927    0.67879674398952
H          -0.54063034196902   -3.15595256283869    1.07844149810562
O          -2.49191747962405    0.97088079534101    0.58839720199002
H          -3.35626363083750    1.38220478300027    0.62064065455185
O           2.60445530326180   -1.59848052092401    0.63748763872927
H           2.37034975797932   -0.68600122569918    0.87527026515466
H           1.80013920882479   -2.11827980701202    0.77955575945049
H           2.24739729118809   -1.13878021989218   -0.93204539168556
O          -0.40465020512897   -0.20636208330682    2.06703067223664
H          -1.24223195952664    0.20939453603272    1.82192177443817
H          -0.24612137910259   -1.63087350626408    1.33402995999498
H           0.28051577039936    0.24440693546451    1.52896370045919
O          -0.64992251945451    2.74527489308379    0.10197077778925
H          -0.30300314933145    2.37130240912414   -0.73687726668514
H          -1.83590568155491    1.71318274032727    0.43025332732674
H           0.07988859450502    2.63545643629909    0.72003292722972
N          -1.20349771829875   -0.64259565416626   -1.17346731532863
H          -0.49937391777637    0.12294844311125   -1.52051893679951
H          -0.69476460332574   -1.37424111814450   -0.63644449292675
H          -1.86688464347017   -0.14670953947627   -0.53926246641261
H          -1.68012928948708   -1.05255851277553   -1.96993058690726
