    26
        -50.45450933  Gyration_radius:  2.45184448964 Dipole_moment: 5.287
 S          -0.49774289872599    1.85806836920685   -0.81247685447474
O          -0.02492732713028    2.68708716961171   -1.86128653775917
O          -1.87693779071358    2.33162625795111   -0.30456888715550
O          -0.60912345693851    0.44564990518223   -1.12877350549181
O           0.43525506254858    2.03577978569679    0.39725247565078
O          -1.67815901425956   -1.53241261462231    1.58292657389158
H          -2.01305204142668   -2.28304154398554    2.07474389300234
O           2.26804948356289   -1.22375477091275    0.43962738736067
H           3.16248378437426   -1.38655181238363    0.74176370630284
O          -3.12944346012087    0.09680074811503   -0.04046025518420
H          -2.75171282567949   -0.25425741014671   -0.85372813872992
H          -2.71668002294037   -0.42187815722850    0.67923147832949
H          -2.44967991957665    1.52319238655864   -0.13208672964706
O          -0.19046930289354   -2.13776788971489   -0.46802740669826
H          -0.34214730640369   -1.27243599671374   -0.88688057461392
H          -1.15817863163450   -1.89385241575410    0.80901593908215
H           0.73298810137087   -2.10431206765529   -0.17642862033676
O           0.47986327867567    0.09070718761578    2.00669818489203
H           1.15496331625189   -0.45170420327141    1.54790777325881
H           0.39869999210596    1.27375452666961    1.08690335303132
H          -0.34862041890094   -0.42210999669824    1.98322551516030
N           2.28254881392049    0.67682553443281   -1.43148738193000
H           1.31467182917765    0.61785661184214   -1.73212619090663
H           2.32842881249279   -0.52891167051374   -0.27820043923298
H           2.86064508017258    0.69557118854116   -2.26351073603967
H           2.36827688271827    1.58007087820624   -0.97925402172946
