    26
        -50.45450933  Gyration_radius:  2.45181957466 Dipole_moment: 5.289
 S          -1.08114833765893    1.24936913277752    1.27692954894163
O          -0.30833654598852    1.32202805230644    0.05021297141959
O          -0.78498296182430    2.23831582415558    2.24907465800094
O          -2.57536572431485    1.27780173524747    0.88837042919219
O          -0.88166096269593   -0.13249377260797    1.92206022475262
O          -1.04193006083485   -1.25401751289543   -2.23869974431665
H          -1.07653950314083   -1.74895631141699   -3.05802457613797
O           2.24368102482880   -1.31851997088485    0.24542464837609
H           2.91415848665409   -1.90102429682698    0.60453709161342
O          -2.45295067400773    0.99967475863671   -1.66917522329067
H          -2.65049476172410    1.14101052429985   -0.10506512361871
H          -1.68941644449032    1.58287105140367   -1.73402104313937
H          -2.11307948468396    0.10704659908163   -1.88178319778287
O          -0.38353105501458   -2.00659493018904    0.30510031035988
H           0.58620074298751   -1.87938068247510    0.24179533078346
H          -0.74887539496628   -0.90573852667591    1.25699036723041
H          -0.74375998937939   -1.82822281124588   -0.58276591558440
O           1.14855757546134    0.10644007421196   -1.86938697274208
H           0.72120778541613    0.70204479347059   -1.22911649489690
H          -0.17686491042672   -0.75229631706908   -2.23252631358137
H           1.74125462717252   -0.43894842683906   -1.33065359897792
N           1.90771457228814    0.77325749593810    1.86567574629788
H           2.17530439429007   -0.53876755198810    0.86903771306916
H           1.29829908667777    1.33703013530354    1.28134369654714
H           1.33575107141506    0.48796840969052    2.65259311658335
H           2.63680743397882    1.38010256460878    2.22207238095997
