    26
        -50.45450919  Gyration_radius:  2.45162126798 Dipole_moment: 5.290
 S           0.24947368335880    1.98804908557289    0.58771736162268
O           0.39616114210602    1.85829989677517   -0.93774902588196
O          -1.11618951058653    2.68180802019711    0.78280447355617
O           0.15538483547348    0.66361158923622    1.17454445964747
O           1.30979625494941    2.79876176887198    1.06657963725527
O          -2.43867756973728   -1.30182879319857   -0.17513846219588
H          -3.07266346306564   -2.01264255546408   -0.27678473738290
O           1.50369723302189   -1.69378956566989   -1.30396971233571
H           2.06513364123622   -2.05963210694722   -1.98856559616335
O          -2.57301608453935    0.73222186003270    1.62572980552039
H          -1.86063478590753    0.38945598665093    2.17564679316098
H          -1.78445909189993    1.99382398868213    1.08506379155430
H          -2.68215994077561    0.07593814849650    0.90837633736780
O          -0.16713582080533   -2.00099969554504    0.89093111537956
H           0.03789526153368   -1.08745500362963    1.15670247273827
H           0.44938749764687   -2.18378798738729    0.16612654806530
H          -1.63209825821466   -1.68687713606832    0.27357633423795
O          -0.67121210787028   -0.19702794708048   -1.94261325911558
H           0.07278871074548   -0.81972593203434   -1.80347422476247
H          -1.41160066621971   -0.52619465846504   -1.40085117909515
H          -0.09910083654856    1.05815912253002   -1.35339790585860
N           2.75617469541267    0.33114353741871   -0.10258314347251
H           2.02553071207397   -0.96151321826966   -0.86420038110548
H           2.69051472892699    1.15175386226740   -0.69421277290950
H           2.10681332399604    0.49724870161470    0.65988800946496
H           3.69019640598728    0.31119903150116    0.28985328068019
