    26
        -50.45450936  Gyration_radius:  2.45184897632 Dipole_moment: 5.291
 S          -0.23722152216668    1.82036012519328    0.99584268874156
O           0.37782517718969    2.04687959791631   -0.39557802847705
O           0.49833211330776    2.58738673870636    1.93475206557295
O          -1.68543500235477    2.33949288123009    0.86282475706040
O          -0.30568562468332    0.39527205348271    1.26369629291000
O          -2.05044605743384   -1.42529497777941   -1.19767347420447
H          -2.51415526625361   -2.14521473919389   -1.62677954521114
O           2.06097743409592   -1.23189518587238   -1.03381373714599
H           2.85136902310538   -1.39318238284474   -1.55058422973578
O          -3.02255858191371    0.13910533912120    0.80290564151268
H          -2.46935327167925   -0.25939101610355    1.48305369969189
H          -2.30371637141812    1.54926960043589    0.79504458203990
H          -2.81001331974446   -0.34759931777861   -0.01894314670730
O          -0.12776943265777   -2.15588743642775    0.40056208722562
H          -0.15082294356230   -1.31142538436578    0.88394424624451
H           0.69826589027936   -2.12033206369474   -0.10477111956895
H          -1.36829662684284   -1.83296927564424   -0.59052302166816
O          -0.01784586931270    0.18708147053541   -2.05673016043448
H           0.15606155168212    1.32156805393328   -1.09033149505080
H           0.73379405452345   -0.38775113797480   -1.80172016481564
H          -0.82916864189912   -0.31473248652010   -1.85702879538387
N           2.57794775822730    0.57079360944148    0.86249453081701
H           2.31149240934425   -0.57524057143694   -0.32122018276849
H           2.57226818796721    1.49465078355892    0.44515062207294
H           1.71183062341445    0.50855480128111    1.38838415153751
H           3.34232433883614    0.54050093080666    1.52704171572631
