    26
        -50.45450909  Gyration_radius:  2.45177946915 Dipole_moment: 5.284
 S           1.41719889487818   -1.11103576155547   -1.05692970608114
O           1.86978608631768   -1.19979090962843   -2.39787017805018
O          -0.02179930430782   -1.03185572818862   -0.88254773022927
O           1.92326704517956   -2.30352895265164   -0.21649640055609
O           2.07570265416300    0.11834761428547   -0.40862514669047
O          -0.80969605535906    2.48218002439563   -0.13733222062660
H          -0.77911435570546    3.43911510251774   -0.16890057380978
O          -1.02331937459504   -0.69418145123918    2.47828225210518
H          -1.58275058158884   -0.68146186576777    3.25570351109574
O           0.81447265055469    1.10048870205967    1.54543283208000
H           0.26043189220119    0.43571327599127    1.99383821120135
H           1.59741203731667    0.47371172883344    0.42985521555702
H           0.20319445739854    1.67558847546997    1.03929866870804
O          -2.17661260523594    0.10229341570561    0.28227491533734
H          -1.58611436670358   -0.40464452250765    1.70414161445385
H          -1.52357743803305   -0.35436275864301   -0.27651877269351
H          -1.97188702543822    1.04269353694765    0.17105638038982
O          -0.17816481145788   -2.90879709675987    1.14431107198460
H          -0.38120582116594   -2.18114829642424    1.76599744457951
H          -0.75534617305621   -2.76287891252660    0.38735763288013
H           1.18024207544131   -2.60676168978550    0.38939797032418
N           0.32540679186968    1.47554575549656   -2.33083253388797
H           0.10611223803748    1.72458995106084   -3.28826980278382
H           0.08609602378593    0.49687358541850   -2.20609667102881
H           1.33277517762895    1.52056274510987   -2.22627613460437
H          -0.40251012205669    2.15274404248098   -0.99025182967316
