    26
        -50.45450937  Gyration_radius:  2.45171619515 Dipole_moment: 5.290
 S           0.04141187489832    1.72835027898086    1.17132775991784
O          -1.22628661074227    2.58032459026044    0.94416637083540
O           0.86982837256229    1.92930173459634   -0.10890205934577
O           0.79705014034413    2.21534895587473    2.26800688316012
O          -0.37432985804602    0.34035594463134    1.26039971331764
O          -2.13806381304988   -0.79586410621279   -1.56885862137245
H          -2.68700591729069   -1.34672009182856   -2.12806424879444
O           1.85644134033469   -1.57845024635071   -0.94542288742249
H           2.65282137271086   -1.87322206751250   -1.38891268362938
O          -2.99702640999024    0.76734378570998    0.48387337035662
H          -2.78965796321642    0.31895403184489   -0.36070908806543
H          -2.64252974679577    0.19166265420315    1.16951180463102
H          -1.98927383825220    1.96545335148503    0.71865815249424
O          -0.64946260664290   -2.09459646763715    0.12859542412822
H          -0.55000976881127   -1.31477488206803    0.70236901956191
H           0.22298911875451   -2.20561200708293   -0.27830556624616
H          -1.64788322484317   -1.40415784096620   -0.94435070908928
O           0.29304726142265    0.37166523153759   -2.01037115756393
H           0.86015167512868   -0.38270533954670   -1.74631029180611
H          -0.62766571205612    0.05609597148017   -1.95818553460551
H           0.58562000918776    1.34221670346530   -0.90418675815327
N           2.50337246888811   -0.12622225764805    1.19575741580176
H           3.15074333173832   -0.39164661366650    1.92873660733593
H           2.14968238426134   -1.06573187061616   -0.13730013900917
H           1.58404448305357   -0.03571522714987    1.61678382074010
H           2.75199164622979    0.80834577421268    0.89169343291134
