    26
        -50.45479406  Gyration_radius:  2.47170348756 Dipole_moment: 5.880
 S           1.77899279120460   -0.31855448995438    1.07479216880015
O           1.97902100662229   -0.39143955103773   -0.45744260623814
O           1.84482844883157   -1.77727283661046    1.52812427053329
O           2.83566659500520    0.43870292239217    1.64901422659503
O           0.44335021725374    0.19168683844228    1.32834307943138
O          -2.23686319628182   -1.22126827286429   -0.56477438156431
H          -3.10801169088598   -1.31951196815465   -0.95133594630106
O          -0.58748698276799    2.53237692438490   -1.12005204469178
H          -0.59381643814796    3.30972388668834   -1.68012068951537
O           1.27105751865114    2.68261879076931    0.79033063257540
H           0.13058779899845    2.66920894830305   -0.46070274897096
H           0.93260787495027    1.86916647162450    1.20225732602614
H           2.22619041844969    2.59094030852820    0.84126738227908
O          -2.06554467443524    1.01872517769176    0.76786890109014
H          -1.24314376556005    0.75474724523257    1.21223976888100
H          -1.78954502163486    1.68916376956140    0.12562111157306
H          -2.27596769274746   -0.40824238358695    0.01201035740844
O          -0.12535310501985   -0.05688347294834   -1.83425713432874
H          -0.87895463505895   -0.53876839225662   -1.43932107968152
H          -0.30988342823744    0.89148365296694   -1.68642170975634
H           1.12248487451565   -0.28010989686326   -1.00834282949610
N           0.06318280040419   -2.90477336176310    0.08849394043101
H          -0.17783295745701   -3.84109518958191    0.38616378857001
H           0.45466382643112   -2.94970891729818   -0.84412466660106
H          -0.78765912544947   -2.34671238278582    0.04836778787306
H           1.09742856236396   -2.28420383087369    0.99200107507302
