    26
        -50.45450935  Gyration_radius:  2.45186682044 Dipole_moment: 5.289
 S           0.47828947920523    2.02246941410846   -0.20614765665742
O           1.63324019196262    2.83118563759011   -0.05491501864604
O          -0.10206679182560    1.74855285305066    1.19151823785163
O          -0.64418327188750    2.78439952914274   -0.94375675621276
O           0.67909558762012    0.76178463175175   -0.89732613007330
O          -2.22954048046956   -1.21742651624670   -1.10404294971470
H          -2.83181808897012   -1.90814224955659   -1.38264313210242
O           0.73978898773844   -1.86332267318143    1.67810454389147
H           0.92412554261348   -2.31484491522609    2.50265232741729
O          -1.53021281652197    0.97690709147640   -2.55051721535695
H          -1.95337219750450    0.26226166202804   -2.03320424551757
H          -1.09156634748573    2.15301455969161   -1.58587107391624
H          -0.64180779380779    0.65839776904253   -2.74180245222858
O           0.28298067257396   -1.90309070251842   -1.05894610884210
H           0.58049469440719   -0.97768389237621   -1.10833788944517
H          -1.30361470434444   -1.59063853050097   -1.16321911507228
H           0.49362727514856   -2.17451608541386   -0.15295318865883
O          -1.49547879849073   -0.34820830460249    1.38103555994272
H          -0.72607721066045    0.93294767532610    1.24961797777759
H          -1.89655669622001   -0.59851967053953    0.52871825613044
H          -0.76699192191136   -0.98380425391974    1.54196792302706
N           2.38879708201234    0.21424213407222    1.40103149298355
H           2.16773851469157    0.47293444119081    0.44453842528277
H           1.39967320182516   -1.11419603863672    1.60588762021795
H           3.39826402962278    0.19572797710706    1.48724459291422
H           2.04717186072901    0.97956846708336    1.97136598492695
