    26
        -50.45450934  Gyration_radius:  2.45169584367 Dipole_moment: 5.289
 S           0.18912668465439    1.87139295551042   -0.90688790082145
O          -0.52405860073940    1.23834275883214    0.18769432874873
O          -0.79933990726113    2.01631737798625   -2.08435140678325
O           0.80899598790007    3.10980290556772   -0.60187424542731
O           1.26931137597423    0.91083783150798   -1.43237868570462
O          -1.92274888426765   -1.88395306195773   -0.64985839192491
H          -2.46023195251421   -2.67503674722082   -0.59677762830496
O           1.61875245919993   -1.48629367441233    1.41489434641413
H           2.40342959156039   -1.96828894783167    1.67896308570418
O          -2.79892384898193    0.61720476045275   -1.26093523914395
H          -1.62039828620968    1.47207971334199   -1.88219614778999
H          -2.53730432635692   -0.32443775944285   -1.21476617654488
H          -2.70967179273254    0.94868998756902   -0.36126351252285
O          -1.09688080926391   -0.96204249319502    1.64207208722415
H          -1.70219546593214   -1.61284671368160    0.28714188295044
H          -0.94214623813293   -0.07343181260473    1.27647425110456
H          -0.20805802842905   -1.31698863049027    1.79355591947690
O           0.74122148282052   -1.54255599049131   -1.15565821667424
H          -0.21862454586650   -1.70896626559336   -1.12373934555959
H           1.02135391370267   -0.08614533100963   -1.38316778119533
H           1.07204279764699   -1.65111333826604   -0.23955012687329
N           2.14485791083524    1.12767235476222    1.35777437687258
H           2.64547471857597    1.34099772759661    0.50244628971931
H           1.20414359829193    1.48105668105059    1.21348857238250
H           1.85653398536877   -0.51427945684102    1.43699258316174
H           2.56533820014179    1.67198518878327    2.10190709145847
