    26
        -50.45450898  Gyration_radius:  2.45153954727 Dipole_moment: 5.286
 S          -0.60018483893255    1.74033205613053    0.98484270461705
O           0.00315536497871    2.08337996184212   -0.38765834862040
O          -2.11527841122257    1.97980377809638    0.80715407121625
O          -0.40899624993934    0.32637563308375    1.25251903295335
O          -0.04950863925368    2.62744554609835    1.94427212432478
O          -1.71544442937800   -1.77759074959502   -1.25231337153132
H          -2.02238541368556   -2.56889690365550   -1.69631888566603
O           2.28190921092075   -0.82066166160073   -0.97468647745603
H           3.09936329307832   -0.82247992743720   -1.47415028042940
O          -3.01581281779090   -0.43173322873951    0.72143066975356
H          -2.57348308930561    1.08822383531721    0.72729081489824
H          -2.69542072777742   -0.86706343416549   -0.09407354586011
H          -2.41332124940476   -0.72007284534301    1.41516719888494
O           0.26541853015111   -2.14391928431163    0.39925356083983
H           0.07232449983689   -1.32000723860062    0.87997648104538
H           1.08411422460078   -1.95385849889371   -0.08291243422999
H          -0.98626553616071   -2.05389598383660   -0.62614063146046
O           0.00395650888049    0.18872403985166   -2.05603931709756
H          -0.06163485577415    1.33249774021248   -1.08779891581772
H           0.84199130524760   -0.23720123224834   -1.77851114283108
H          -0.70526742153989   -0.45567079636929   -1.87774970286761
N           2.40152527553854    1.03657692790425    0.93553047298519
H           2.38574209224359   -0.13305302897681   -0.25472639750330
H           2.23686478152462    1.94538687163704    0.51758275598827
H           1.54736337982048    0.81258975782606    1.43638255396129
H           3.13927520344760    1.14476866571499    1.62167699987706
