    26
        -50.45450932  Gyration_radius:  2.45184529347 Dipole_moment: 5.289
 S          -0.12036507227172    2.04222729027948   -0.41961548099223
O           0.47319292402878    2.94459007340251   -1.33848031352576
O          -1.33930211454895    2.68035078805446    0.28148939892582
O          -0.55010534201048    0.77132152890025   -0.97425882236692
O           0.88271004516833    1.78684498269940    0.71775460120824
O          -1.89452238707476   -1.43566590204924    1.42227697996245
H          -2.36122141584441   -2.18310953481672    1.79769890011800
O           1.96641793388227   -1.72273275315177    0.01243095800053
H           2.81716588171809   -2.12072964497423    0.20114674839007
O          -3.03167143099965    0.73913348667130    0.25024583711504
H          -2.70838350351088    0.01771890974147    0.82679519310500
H          -2.06450539192545    1.98776855684675    0.35626919971483
H          -2.77714872376506    0.48260140359487   -0.64237247900565
O           0.58200990971736   -0.40147843414482    1.94055010507274
H           1.10083802058666   -0.97036782055848    1.33420697507897
H           0.71487325463664    0.92867176443719    1.25932839883445
H          -0.33812878045943   -0.71991149106545    1.89818749597516
O          -0.67159727152564   -1.92099135885199   -0.82605134934072
H           0.24980313578332   -2.13419958029089   -0.61511692644088
H          -0.65129003312616   -0.97843159162831   -1.06769363577999
H          -1.50228816472470   -1.73791124824513    0.55348011883496
N           2.30558895796028    0.46258049774273   -1.47826841589724
H           1.33572873959651    0.65914316267721   -1.70487410231737
H           2.83946955509066    0.52695306497073   -2.33712296207916
H           2.60003330106213    1.22412617417427   -0.87739672603449
H           2.14269798228181   -0.92850232430080   -0.57060969639095
