    26
        -50.46438036  Gyration_radius:  2.41490715774 Dipole_moment: 4.125
 S           0.69871775292847    1.39149394732141    0.49836273734403
O           1.38114303045177    2.49379705634432   -0.16368360693084
O           0.62522541948387    1.69107593526420    2.01569730814518
O          -0.67004379156046    1.24486948692834    0.00375406765601
O           1.45015296385986    0.14689506894421    0.30846105154404
O          -1.54751981186631   -2.09052960113817    1.39476126014453
H          -2.07867720293001   -2.69596741074795    1.91377217701963
O          -0.43786734819935    0.16819217451480   -2.38141199275101
H          -0.71172977764541    0.67004539160960   -1.58058339212605
O           0.55954627184103   -0.82755943387025    2.63439404098287
H          -0.22597533727733   -1.31007831521816    2.31029651738389
H           1.17614559098427   -0.82732102966263    1.88663504572867
H           0.52048080579644    0.80183915314171    2.45128625977560
O           0.17253818593523   -1.89874875302425   -0.85615116231092
H          -0.48385467933693   -2.16582373661949   -0.19781252653280
H          -0.32374604159771   -0.74972116825189   -2.03296878411702
H           0.72182479945730   -1.23171919137683   -0.39897075064975
O          -2.85471618236192    0.16892258231613    0.97887047618662
H          -2.09794947165490   -1.28159561893978    1.25229452178304
H          -2.05419481211228    0.66761338260962    0.69946989140375
H          -3.47848532944602    0.25628855720948    0.25577336643424
N           1.96349630864603    1.08030745533434   -2.23308632775207
H           2.52247963154156    0.32915359499814   -1.83234038221829
H           2.41142707519228    1.49489886023099   -3.04426121801065
H           0.95642973056605    0.68101424450550   -2.44654629500206
H           1.80515220930408    1.79265736761014   -1.43601227311808
