    26
        -50.46438033  Gyration_radius:  2.4149477552 Dipole_moment: 4.126
 S           0.11541448614105    0.94611750965609    1.32870946737930
O           1.19736615899577    1.66010084692500    1.99107384704113
O          -0.09555198265599    1.48734843214794   -0.01749466424219
O           0.39033458967995   -0.48933345775522    1.26714705243626
O          -1.18524873119875    1.14542605956083    2.14483324379921
O          -2.20404977833381   -1.58114683900040   -1.16216343322108
H          -2.95683665365321   -2.10275820007740   -1.44375146042057
O           2.22315027000876   -0.76971200834883   -0.59410371929947
H           1.64071731320469   -0.84873539953339    0.19504424288971
O          -1.11017055172092   -2.62521881392675    1.00597465442882
H          -0.59427334671018   -1.81689023446970    1.22530935802393
H          -1.82602173967801   -2.03458979930052   -0.36899820531571
H          -0.46675030717148   -3.33374765287609    0.94615686673331
O           0.11021068485673   -0.21353147100295   -2.07627006828082
H          -0.65873797530463   -0.79162235197189   -1.97557623667230
H          -0.01600718424464    0.48291173191559   -1.40196986621359
H           1.57405770610106   -0.72641956299313   -1.33836744578844
O          -2.68946220504996    0.83923513697193    0.05353353087562
H          -1.92493171575201    0.99041173375929    1.49648296767010
H          -1.93983158640746    1.32944666256714   -0.31673959504437
H          -2.64041415863241   -0.04372393307523   -0.36227011660418
N           2.64817687708110    1.72562555866080   -0.13264763117889
H           2.05458449756304    2.23461643692734   -0.78525890961373
H           2.60366419535323    0.65378209003402   -0.39406508673285
H           3.59345282921217    2.09518449480695   -0.11269652170951
H           2.15715830834075    1.78722301046950    0.82810772907059
