    26
        -50.45526231  Gyration_radius:  2.41567759185 Dipole_moment: 6.811
 S           1.38276331400762    1.24799443595688    0.43485585919144
O           1.48264962514451    2.78741065962551    0.65858639285602
O           0.48065233230948    0.71475911759194    1.48763991509227
O           0.83342232995634    1.00601883063758   -0.87578664075446
O           2.71445209211604    0.67743236126325    0.60169308910461
O          -2.30404136096426    0.82974809265912   -1.37642647714751
H          -2.97432421462054    1.12129490946324   -1.99548661356241
O           0.05352714419582   -2.57509521154638   -0.37101989205610
H          -0.35409319894104   -3.44126864870690   -0.32298920259337
O          -0.38334122277528   -0.61885922868493   -2.55021573758710
H          -1.62276736707775    0.34514595157364   -1.90388773438504
H           0.21679494054162    0.01639699387803   -2.11538872651057
H          -0.22204629800008   -1.44998897865582   -2.08898620255747
O          -1.53416757553864   -0.82085942423894    0.67155420357063
H          -2.00889394438437   -0.30383409991357   -0.00050554572921
H          -0.62873272115639   -1.92347031777617   -0.01785989529116
H          -0.85175269772078   -0.20683576501359    1.01499175320170
O          -1.15617835871667    2.68647361112457    0.45196338700460
H          -0.97362174806292    2.03195350443606    1.13685477144378
H           0.55651741914526    3.07695885577126    0.51113745135722
H          -1.48607490404290    2.17445394436923   -0.30679801296928
N           1.77295219966462   -1.53093606323069    1.40656222032801
H           1.08457888686303   -0.86295389563888    1.82628771143726
H           2.42068627151138   -0.78359973149126    0.97156455307854
H           2.23521412709898   -2.12340823464925    2.08807800643156
H           1.26582493944776   -2.07493166880682    0.66358137704762
