    26
        -50.46438039  Gyration_radius:  2.41485166947 Dipole_moment: 4.125
 S          -0.35687177889609    0.52084325052649    1.50847613776857
O           0.33718220260482    1.31237102045140    2.51382194184868
O          -1.72504429628892    0.07697741284524    2.08173179028364
O          -0.59808413292247    1.32917489145682    0.30922189730133
O           0.39992497073955   -0.68456634768164    1.17093675058695
O          -1.39158725003865   -1.77998576169634   -1.89920792642092
H          -1.88599295406833   -2.40375610010877   -2.43265040787536
O           2.40240582091260    0.14179479536782   -0.31540381294617
H           1.80325865699788   -0.32968925407299    0.30663761944906
O          -2.80321327380070   -0.06689543417173   -0.27346629790131
H          -2.29388528323265   -0.10523882304798    1.28504142328427
H          -2.23251510403925    0.71079205132399   -0.36794808530354
H          -2.41072401806169   -0.73832344456780   -0.86508274279510
O          -0.23981904303821   -3.00928988742548    0.13779110454705
H          -0.96629887036621   -2.30160865095994   -1.17482215501004
H           0.61018854711371   -3.44245859935363    0.04095142227074
H          -0.05879810370576   -2.17896679425933    0.63319907617103
O           0.39547239257561    0.42424584324226   -2.00753036488845
H           1.86029040484974    0.19376424751764   -1.14027839082627
H          -0.13408235026026   -0.36336268308541   -2.19411008900098
H          -0.03289771775351    0.82939747081641   -1.22777960529879
N           1.89087639879405    2.41188984042392    0.78255064750338
H           1.31124160694488    2.04791126791388    1.61873075300397
H           2.24626132255722    1.49662467256695    0.27737037754109
H           1.22969029851852    2.87751913614434    0.16340828292441
H           2.64302156385498    3.03083587986577    1.06841067377449
