    26
        -50.46438036  Gyration_radius:  2.41493472139 Dipole_moment: 4.125
 S          -0.07515244616170    0.63321872135460    1.50550426637135
O           0.26653828042579    1.35906779696592    0.28232292838045
O          -1.46673562809106    1.12363263712705    1.97504875774933
O          -0.15650164918176   -0.80696831683349    1.24290884879782
O           0.89370285073802    0.89548500787661    2.55982537705935
O          -1.98979364258183   -0.30918430235485   -2.15757712294218
H          -2.68355571077533   -0.32665219090942   -2.81822798455482
O           2.30749311535206    0.06598163760687   -0.74950469449864
H           1.64403969281187    0.73299705808258   -0.46124076625301
O          -2.71169108204332   -0.59438141935820    0.48214852804230
H          -1.94671260577114   -1.11146313875764    0.77678002356471
H          -2.12149949998668    0.60284122339833    1.43516514896969
H          -2.57851461195427   -0.47657291731980   -0.47872419585115
O           0.35241138720120   -1.63563785789347   -1.25268965118414
H          -0.39737795935853   -1.30153216280603   -1.76429796477076
H           1.74498253512766   -0.63381746809714   -1.16291638054662
H           0.12123796872265   -1.44201484498109   -0.32278833537750
O          -1.10373379969752    2.15646413062581   -1.80761751907343
H          -0.42827503019870    2.52700560733768   -2.37859750845193
H          -1.68454956707597    0.62900592937153   -2.09222708324325
H          -0.65022552706958    1.95267092451440   -0.95884313713141
N           2.56962415499183   -0.83056213880802    1.64803004181740
H           2.60120257032502   -0.48888288786725    0.59857645064835
H           3.48980155063849   -0.94013375134013    2.06250695345871
H           1.97165280786975   -0.08590730247819    2.15380922090297
H           2.03163185574417   -1.69465996445855    1.68262582814429
