    26
        -50.45526239  Gyration_radius:  2.41580710769 Dipole_moment: 6.810
 S          -0.57839691200607    1.69149546614245    0.68099970989327
O           0.48550543282455    2.62495096614159    1.03252536080235
O          -1.94565032868892    2.38386875282593    0.96525666751085
O          -0.53863476987665    1.29858383442373   -0.70543440413016
O          -0.50363367390864    0.50035765956609    1.56544343232496
O          -1.66082993939514   -1.51421297156274   -1.68684636071034
H          -2.18306542472309   -1.89816254900232   -2.39213086857222
O           2.37875404140372   -0.96133513454622   -0.43922499164177
H           2.99642327008971   -1.69311263494231   -0.48070830701025
O          -2.93781257887050    0.00541924848444    0.35393007540789
H          -2.29092451206503   -0.20597882035393    1.03779843126325
H          -2.58657275254890    1.69457044616195    0.68693256283958
H          -2.58206979567315   -0.38739988219268   -0.46209791011974
O           0.08878365131814   -1.81881357237689    0.40144944452409
H          -0.55455367928364   -1.92885137391590   -0.31841674674386
H           1.49110315987269   -1.35757444378519   -0.17508035962533
H          -0.19959945149912   -1.00459280130901    0.86460704251269
O           0.49334952036057   -0.21181646464861   -2.59681458478492
H           0.14896347320031    0.52335908928919   -2.05481323518699
H           1.30053124939376   -0.48152304837077   -2.14382595882972
H          -0.91927237411774   -1.02331498353965   -2.11849701318172
N           2.07678345403742    0.74272565808866    1.61297107411557
H           2.38821924736550    0.17591445876222    0.78420371164314
H           1.68018378046029    1.69975585657663    1.30641226579891
H           1.16952317131710    0.33737987184249    1.94293434306502
H           2.78289274101556    0.80830736224277    2.33842659883735
