    26
        -50.46438034  Gyration_radius:  2.41491567875 Dipole_moment: 4.124
 S           0.22075921703839    1.62014403071859   -0.00428386315154
O           0.63763871954025    0.69177145617502   -1.05507381150715
O           1.30938980286200    2.51021155360549    0.37227948673898
O          -0.94816392278091    2.47067774809546   -0.55890931331936
O          -0.25840893318596    0.88518984310910    1.17047115710445
O          -2.17489894343867   -1.73964606550249   -0.97586209466054
H          -2.90158102342997   -2.23059026431321   -1.36181667033843
O           2.17193445483403   -1.07377207598666    0.14121624209503
H           1.73405695170085   -0.45628321216533   -0.48739100386585
O          -2.72222170126771    0.71325023791211    0.14431719587153
H          -2.09839464984557    0.66633182534541    0.88456931046572
H          -1.75984612505860    1.90678760527599   -0.43811509627744
H          -2.64395630407969   -0.15166794901383   -0.30363839989513
O          -0.19703622923609   -1.79011162142375    1.06082140307873
H          -0.29006493779454   -0.82644237140759    1.19631634870432
H          -0.87270071444955   -2.00974533073701    0.40446090626556
H           1.41239795006244   -1.60080471461995    0.49109304297769
O          -0.64483452706520   -0.70578718838922   -2.86720196134606
H           0.05408305696769   -1.21917781369254   -3.27650600731352
H          -1.62917658573407   -1.40294066135318   -1.72846289646727
H          -0.19143958736511   -0.07767682783545   -2.26093323011255
N           2.38957506747983    0.76693802561903    1.92585466107871
H           2.42164939109653   -0.08256405135941    1.22124436710122
H           2.05310985260589    1.60003932450463    1.32524544520993
H           1.64821283749118    0.58918015129219    2.60114929648273
H           3.27991689301863    0.94668833615359    2.37915548505736
