    26
        -50.46438031  Gyration_radius:  2.41495501142 Dipole_moment: 4.126
 S           0.75740093798483    1.33384003323575    0.56636793153904
O           1.09806728501525    1.83872234135327    1.88852596045255
O           1.29780813381334    2.32057092265433   -0.49752035002041
O           1.37546609411197    0.03039376327493    0.32377089422717
O          -0.69888446337245    1.24748067534410    0.41993008209907
O          -0.01815108199349   -1.67867125042891    1.75172610343638
H           0.67659634249436   -1.18486464753347    1.26012141740403
O          -0.47003638288228   -1.04890427884367   -2.71805437320483
H          -0.53652950153794   -1.33990682641911   -3.62852213539750
O          -1.73832953929242   -1.14709395709792   -0.17931616259347
H          -1.44100280621731   -1.30742420792416   -1.08566330094656
H          -0.74503537920889   -1.74996566345768    1.08565893330768
H          -1.46555187270627   -0.22759927325580    0.00982666794091
O           2.00804824173210   -1.31526635049218   -1.83742914826070
H           2.32310757773973   -2.14984241424266   -1.48556559422102
H           0.46747738974785   -1.19731019749947   -2.44118084548955
H           1.87178644074960   -0.73347146056519   -1.05599159592417
O          -0.52704080711284    1.65607425810910   -2.21767925602502
H          -0.49107306678172    0.72655612263136   -2.51695059125698
H          -1.02479741398113    1.62978384416297   -1.38652053888278
H           0.73997331667985    2.16109164014557   -1.30668665916179
N          -0.71307532858093    0.42990691263812    3.05224457333209
H           0.07651255995053    1.08435751546759    2.71132852424913
H          -1.56664807000558    0.76298733211927    2.60757376836020
H          -0.46082863651436   -0.55260398383187    2.61611717363445
H          -0.79525998980093    0.41115915039977    4.06388853141164
