    26
        -50.45526234  Gyration_radius:  2.41587909993 Dipole_moment: 6.815
 S          -0.38797885930629    1.51511782103647    1.10180843942925
O          -0.51520365971659    1.44895669195378   -0.33262972983047
O          -1.66815434960608    2.18514998188430    1.68648675431912
O          -0.30832861021840    0.15087634116382    1.68421852749884
O           0.76858337643963    2.29389058185472    1.52915025612185
O          -1.92314603351755   -1.01134158388697   -1.78265039737653
H          -2.53746123663900   -1.20188930023568   -2.49245235118505
O           2.25027040060804   -0.94146012082462   -0.90883600007778
H           2.80807169476914   -1.67151689104110   -1.18200820198690
O          -2.88018048689924    0.05744773045114    0.67691443606894
H          -2.63681792992793   -0.15352819939003   -0.24119882007251
H          -2.18391768622055   -0.33384755862642    1.21818490049638
H          -2.38015977857121    1.60768846621094    1.33582540113480
O           0.00158716252424   -1.86422140481675   -0.02700283200329
H          -0.18150459942792   -1.16560345513759    0.63556899332146
H          -0.71681928754728   -1.77726295011471   -0.67552873834822
H           1.36791099190414   -1.34709091599518   -0.64110679509932
O           0.21450649221971    0.36652727296502   -2.61720607999593
H          -1.19627149815607   -0.46837235170901   -2.17516072156594
H          -0.02191373550455    0.97271747813430   -1.88953924849980
H           1.04244432064613   -0.03561957184909   -2.33039961272964
N           2.27458203232382    0.25858723562325    1.49229914192876
H           2.46115518397628   -0.11692481386895    0.52825702901914
H           1.91742266420857    1.27736976737670    1.45331896198282
H           1.37875197400824   -0.16984960416582    1.82429019558110
H           3.05257143761122    0.12419936299943    2.12939651186644
