    26
        -50.45289438  Gyration_radius:  2.64824226586 Dipole_moment: 2.979
 S           0.10292981786766   -0.12070560498009   -0.79915138865946
O          -0.41238978479260   -1.43448307058374   -1.04260265071498
O           0.75291934677597    0.52266479949789   -1.91506876237095
O          -1.03584864258558    0.79345979783220   -0.30670403179681
O           1.07167353944523   -0.18395072964175    0.37697607133374
O          -3.04878579992550   -1.54441707504840    2.04321810364273
H          -3.05855340809035   -0.83612638883387    2.68867381684930
H          -2.11721844721059   -1.89553654491879    2.01588101807512
O           3.43590359030079    0.92673318800385   -1.81456269464774
H           2.50172595169206    0.77891918388340   -2.04794402175194
H           3.89921937324231    0.10957205642928   -2.00276949217585
O           0.47697218884379    3.05292069150841   -0.99531335391112
H          -0.38914675176251    2.99271824208490   -0.58416555685274
H           0.54235049895381    2.27451255492411   -1.57464336811696
O           2.39163565341834    1.91487436894767    0.44574371857777
H           1.64331711048105    0.71902098568653    0.47060877513633
H           3.03469356786628    1.70071191041552   -0.26218236115708
H           1.76221044450753    2.55137661381820    0.02905013594432
O          -3.00401829803180   -0.72512473584253   -0.45278435514705
H          -1.92021394497400    0.24096636548236   -0.34963202195296
H          -2.49701875884989   -1.42401954183446   -0.88547494068246
H          -3.16816123584616   -1.04244741756161    0.47711364683546
N          -0.50186201807117   -2.29060150817648    1.71639349353679
H           0.18775070080708   -1.68000917812291    2.13869650449667
H          -0.41801068896662   -2.15571243359573    0.71038190160524
H          -0.23207400509235   -3.24531650937969    1.92026181390810
