    26
        -50.46438034  Gyration_radius:  2.41492283283 Dipole_moment: 4.125
 S           0.79460360893979   -0.36732299305116    1.38077985782138
O          -0.14316224396401    0.75495155984442    1.27691012526059
O           0.15333442269694   -1.45906637368817    2.27206224766483
O           1.04188869460200   -0.95269192284829    0.06318727448344
O           2.03566328407564    0.07354112359959    2.00087761480048
O          -2.41999643677835   -1.09622845796012   -1.28448178047117
H          -3.18385887152394   -1.54112993153130   -1.65410247819262
O           1.55323364658183    1.08133954139239   -1.51890196439174
H           1.50585530886845    0.20818996623232   -1.06769249017751
O          -0.27528202717042   -2.63097573157057   -1.46338835667921
H           0.25354173748631   -2.65385325313377   -2.26300471283998
H           0.24635091895572   -2.10486859818951   -0.81627087174324
H          -1.65126251089434   -1.70636317116516   -1.40454892280697
O          -2.24242901621631   -0.89275569532216    1.45361526204493
H          -0.81499051410622   -1.44749724939869    2.04051567699317
H          -1.83958905790758   -0.01239636893189    1.49843226463510
H          -2.39871053286274   -1.04791952932680    0.50156434279026
O          -1.04539873233284    1.38565595794681   -1.16481993759014
H           0.60031509035389    1.30840985043860   -1.65100290848301
H          -1.60948381935289    0.63686124705558   -1.40288895738931
H          -0.80406421007959    1.22451326761100   -0.23131069431644
N           2.07102360509384    2.28899051917976    0.69325333144131
H           1.92880979601690    1.88103187437026   -0.32290561915094
H           2.85621142892141    2.92862185268280    0.76304528448167
H           1.19780697778856    2.72579199529423    0.98308855093623
H           2.18958944277743    1.41517052044523    1.31798790086502
