    26
        -50.46438035  Gyration_radius:  2.41491211747 Dipole_moment: 4.127
 S          -0.62561663750821    0.96926606333590    1.15863085813208
O          -0.05756718226401    1.40744128793001   -0.11620149215051
O          -2.15472994430665    1.20654603478215    1.10321072453611
O          -0.38675518097759   -0.46285136301273    1.36278718937970
O          -0.07378536316437    1.73167664163435    2.26913791204819
O          -1.17381244861120   -1.34954876955408   -2.34754903615879
H          -1.62555830090475   -1.71141957168584   -3.11113052483271
O           2.38191249594394    0.43355848588331   -0.16463432957844
H           1.56244909531267    0.96762641971494   -0.27160641522853
O          -2.59531766568438   -1.09689998725771   -0.00551932169616
H          -1.87950525028903   -1.31200220885362    0.61152725105095
H          -2.52282305080796    0.41659709172572    0.62151514699615
H          -2.20190881831704   -1.20782429857559   -0.89312380237007
O           0.97471565658648   -1.76886430366685   -0.53842171759441
H           0.36818089767690   -1.77778292916239   -1.29180928560547
H           2.09190868046914   -0.46709285558419   -0.45064039954611
H           0.44732463347540   -1.39991253121890    0.19736668049149
O          -0.84917578198497    1.26030488425623   -2.61272470737427
H          -0.64432917079310    1.40659930408076   -1.66175935784041
H          -0.10359152455812    1.62141786953815   -3.09569969758619
H          -1.06004224637910   -0.38225268529508   -2.51807595303378
N           2.05826623482796    0.29620240234489    2.38421467545939
H           2.81716639436857    0.53123633580884    3.01621005192166
H           2.34571726365015    0.34511454179163    1.31922286974900
H           1.68449274810970   -0.63323353889010    2.56797108982092
H           1.22238446609523    0.97609764986488    2.46710157099385
