    26
        -50.45450924  Gyration_radius:  2.45160232965 Dipole_moment: 5.287
 S          -0.43874915889092    1.91684646618295    0.70192005005828
O           0.34028219420288    1.99682428573373   -0.62184025559127
O          -1.87874182787081    2.32647019712523    0.32363099970280
O          -0.48004058135976    0.53703994146074    1.15122634154830
O           0.13617572510435    2.84203805348379    1.60980842944849
O          -1.81977889827984   -1.68838438430097   -1.22840098313115
H          -2.19148849279674   -2.48438545992474   -1.61013995838988
O           2.22595770938516   -1.22914806071358   -0.60391539048559
H           3.08080837471767   -1.40466226857846   -0.99907539486706
O          -3.10325984225964    0.06227906447237    0.41002416773095
H          -2.62303690537945   -0.20991814656737    1.19909548654001
H          -2.44956315417372    1.49914433996967    0.29326793128855
H          -2.76835806380360   -0.51417621451574   -0.30610015576701
O          -0.08393268822153   -2.08958124336547    0.67182424802319
H           0.79683159571050   -2.07080023912890    0.26833800560847
H          -1.20277607878412   -1.97266362936986   -0.49447686800015
H          -0.20439954290738   -1.19226714802866    1.02896439509183
O           0.23296056826261   -0.08221226182981   -2.05023287377384
H          -0.57479358939788   -0.60098182328246   -1.88156547323067
H           0.23715475719726    1.17648782685468   -1.23372619017776
H           0.97054292505772   -0.57331225712559   -1.63143404194161
N           2.42064233026120    0.82827274436671    1.08199058432018
H           2.35559655170232   -0.47321808584543    0.03918129528810
H           2.42835609441122    1.68899402819491    0.54643731855524
H           1.49833971601589    0.78284272167867    1.50378618252847
H           3.09527028206204    0.92847156308284    1.83141214963400
