    26
        -50.45526239  Gyration_radius:  2.41579695456 Dipole_moment: 6.811
 S          -0.72421665450010   -0.10154969444592    1.76766580154183
O           0.23505973925699    0.07737176211778    2.85146186142385
O          -0.81787945483984    1.15306054274259    0.97782952566149
O          -0.39822904332111   -1.21657014410666    0.91407012530142
O          -2.12840359073755   -0.34813264907786    2.39780382943425
O          -1.26459042592300   -1.29708690013509   -2.14793612671017
H          -1.62713782876963   -1.89760075950754   -2.80020862704276
O           2.42895458432205    0.39100892832940   -0.84988160011860
H           3.05035296127634    0.73417875147991   -1.49394574636793
O           1.01491146515959   -2.20135950954025   -1.07519041893319
H           0.55891594267727   -2.03835946954469   -0.22765135323362
H          -0.45624243928698   -1.73198115557915   -1.78093465090220
H           1.71567926118998   -1.53960763189579   -1.09770058703529
O          -2.94828073228075   -0.22508813892119   -0.11770273350596
H          -2.69143426317301   -0.47059596768789    1.60322020744599
H          -2.45203348644466    0.59624513738820   -0.01779367572809
H          -2.42919917938176   -0.76082900890668   -0.74241529836007
O           0.02564961294966    1.04484478428744   -1.54440122758672
H           1.51062762695554    0.61141114836139   -1.20039866300015
H          -0.45608310483084    0.30817558735048   -1.95609662520907
H          -0.36033318613221    1.11773745727571   -0.64645228304168
N           1.69572302169602    1.58784061388174    1.43844158179352
H           2.17601467968142    1.09555926034227    0.64340193182194
H           0.74481690148458    1.86765128331570    1.10108305227737
H           1.35926646466860    0.88611229473069    2.18779489747015
H           2.23809112830112    2.35756348774522    1.81593680260266
