    26
        -50.45526237  Gyration_radius:  2.41584559649 Dipole_moment: 6.813
 S          -1.00861077885787    1.03407005234408    1.25425229166612
O          -0.74961433831812   -0.38207838309247    1.32942951662197
O          -0.22202461391071    1.80207636694176    2.21254848876583
O          -0.75026760372489    1.54179454734378   -0.11766695646969
O          -2.51785764137126    1.28270452168345    1.55445811287531
O          -1.10647564561507   -2.29079552753703   -1.19365214012257
H          -1.45795267998971   -3.15018545334814   -1.42921072594790
O           2.56531861134157   -0.31044211662838   -0.31282468806131
H           3.33394100232697   -0.45965734059550   -0.86571954441901
O          -2.88270757438429   -0.13184983755330   -0.65500819478550
H          -2.95659819540762    0.72087765773064    0.87977867965234
H          -2.27241584464537    0.55706246938221   -0.94443807649062
H          -2.37162414814031   -0.95862073361780   -0.69917554874508
O           0.77254692608175   -2.43612939695294    0.70704583635456
H          -0.45806618251065   -2.44068380478561   -0.46266134586150
H           1.57315592157047   -1.95642867592487    0.46539739444740
H           0.22063266335081   -1.76893311507985    1.15773315738616
O           0.46018591461483   -0.12548894383378   -1.80286603857131
H           1.76965970789662   -0.31535566935899   -0.93054962113794
H          -0.07014389802054   -0.93972553687105   -1.80048623566178
H          -0.04789171801469    0.49865949089657   -1.24349882248017
N           1.69162547023253    2.06720908762040    0.57570753778851
H           1.11941792809452    1.98739481732539    1.48864553277318
H           0.87272915247424    2.11885796994724   -0.07461811101126
H           2.29245428655876    2.88394016707448    0.54208188680172
H           2.20058327836126    1.17172737689209    0.36529762463387
