    26
        -50.46438029  Gyration_radius:  2.41490934087 Dipole_moment: 4.125
 S           0.33946009278622    1.57397110330295    0.28483781553596
O           0.78382806902348    0.79241195250348   -0.86902346311149
O           1.45059290969651    2.29206938746784    0.89217677797018
O          -0.70521295030612    2.60277892083533   -0.21287361964169
O          -0.30229231190123    0.70620401155082    1.27727163196054
O          -2.19431880240205   -1.36217107239286   -1.42723984129817
H          -2.91510648437015   -1.71941106921350   -1.94773337695239
O           2.06256956259596   -1.27052019854313    0.13659583063612
H           1.73330296063770   -0.52407675243621   -0.41348133427617
O          -2.66296550537748    0.91918248697010    0.03837650390984
H          -1.56412393579739    2.10084903252000   -0.25526795703684
H          -2.60660065677539    0.13352322492423   -0.53994054654270
H          -2.11769454910016    0.69936886019805    0.80890555283066
O          -0.42931632842966   -1.91196662913446    0.72738736530766
H          -0.46314846754371   -0.97802353904933    1.01418660699995
H          -1.05371212499353   -1.96280931643891   -0.00961203663584
H           1.23626070769435   -1.77725358153470    0.33039117567606
O          -0.42030199000398   -0.17777990013382   -2.98821018482434
H          -1.55644806925180   -0.95885971234219   -2.06604148753669
H           0.01865087592190    0.30248476115278   -2.25049923713306
H           0.27446586176727   -0.67851037265446   -3.41960088823371
N           2.24610981314014    0.23414097039458    2.21563172515306
H           2.28157410998780   -0.49121328920303    1.38383492796428
H           3.10059740465301    0.25946893869616    2.76311388275683
H           2.03065053799856    1.17901782936678    1.73734364775170
H           1.43317927024803    0.01712394325817    2.78947053877858
