    26
        -50.45479388  Gyration_radius:  2.47178539124 Dipole_moment: 5.875
 S          -0.22352329882265    1.96694330392804    0.70918422034015
O           1.15196777863836    2.55236918922204    1.03029170955734
O          -1.23382110823738    2.96135565022296    0.81034485092536
O          -0.15533787351063    1.28242045385670   -0.56960406527184
O          -0.44477309787380    0.90191331967448    1.80915626724017
O          -2.25752364450653   -1.56282483022407   -0.68836380946326
H          -3.04600527034361   -2.10540499566592   -0.64420983490727
O           1.87892466473037   -1.64879486515107   -0.75466783747211
H           2.24000755886234   -2.47076431908652   -1.08925306105275
O          -2.82377711229508    1.04495585974010   -0.61257330094185
H          -1.89307820649977    1.26544275183525   -0.78892207496335
H          -2.55972017287331   -0.62710547577079   -0.64159563425213
H          -3.09220891376710    1.68018036442545    0.05650397860762
O          -0.15865528007864   -1.50134132191863    1.04900602133437
H           0.62107747650197   -1.59047819397862    0.46576327589021
H          -0.30496938579560   -0.06582903832397    1.50320729066060
H          -0.93757605761814   -1.62137138067778    0.47097307363165
O          -0.05051594047824   -0.79337156411609   -2.29398426114849
H          -0.05464027641059    0.08985064009692   -1.88980706723693
H           1.22998326452750   -1.32759746730730   -1.44069217722876
H          -0.85868893316714   -1.21401118711612   -1.96541331439090
N           2.64931526598035    0.48532959938510    1.09109391441288
H           2.45227814560976   -0.13739391240694    0.30985378667899
H           1.82106702271724    1.74309176743558    1.02755122207967
H           2.41043129871271    0.00118357106738    1.94759666828301
H           3.63976209600701    0.69125210085814    1.09856014869230
