    23
        -45.35981435  Gyration_radius:  2.3261261474 Dipole_moment: 5.670
 S          -0.59296416167745    2.05933300271487   -0.13432040377234
O          -0.00994335475898    2.14047932739701    1.30622535069981
O          -1.62712973697878    1.05058815464606   -0.12940069841810
O          -0.93734405551348    3.33519120157617   -0.63459175384781
O           0.61837847186156    1.50987575238234   -0.94399385069252
O           0.17072986421958   -1.73307237598543    1.43822891185850
H           0.31202204732597   -2.65165222165011    1.66960687376914
O          -1.34551816342237    0.28858432117533    2.42805628803948
H          -1.97970633422601    0.33774427204927    1.69832617940167
H          -0.82034103155623   -0.51951522475303    2.26187122443003
H          -0.51646741412712    1.46451951000709    1.86959529477039
O           1.95284024749300    0.13501959541605    0.76530630375810
H           1.97701327228042    0.74923463669598    1.50436144483250
H           1.38388324900669   -0.61870368981074    1.04224504353632
H           1.18147051574160    0.94269087787852   -0.32846606363476
O          -1.10286399312325   -1.52220713336412   -0.77280589797904
H          -0.45979170081514   -1.43805250563542   -1.51593515038146
H          -0.34122304274708   -1.73170317183184    0.56207522186110
H          -1.46355665578737   -0.62549182071784   -0.65191395176732
N           0.72645016892330   -0.92700434832691   -2.69620745730076
H           0.44677179691862   -1.01012537428206   -3.66537810354346
H           1.66497318840661   -1.29633084799780   -2.60960708037317
H           0.76231681255580    0.06059809242078   -2.46327773524725
