    23
        -45.35981436  Gyration_radius:  2.32612021733 Dipole_moment: 5.670
 S           1.23289679638559    1.73572475180179    0.27891223349507
O           1.08134014581546    1.21452367142823   -1.05991139387839
O           2.33850920563010    2.58156377120751    0.52157978272605
O          -0.11153025861270    2.41271357647120    0.67374184253272
O           1.29201582437748    0.53229756560053    1.26537495113331
O          -2.04631189534494   -0.66129784586926   -0.69018633349688
H          -2.70233904545612   -1.31004545444660   -0.94717197236328
O          -1.49087240160038    1.89839515103865   -1.40099721214428
H          -1.88032588264383    1.02022783806758   -1.21769258875446
H          -0.73792984581835    2.31258671783280   -0.11901875165967
H          -0.66592822174033    1.72003326272314   -1.87508448670044
O          -1.17011985131027   -0.01548987526318    1.74574013520543
H          -1.57366351001794   -0.31405222345843    0.89926676464004
H           0.34745137430461    0.25486091218522    1.48562743087264
H          -1.51481539717124    0.86457278316325    1.92101166555589
O           0.28508690080866   -1.32924631628793   -1.51078124732852
H           0.70300616680979   -0.44942014646548   -1.50400976598271
H           0.75011804469557   -1.83558692481862   -0.80350818418613
H          -1.15778486763417   -0.98973745156392   -1.05402670880674
N           1.61100120875357   -2.38315555271242    0.61786601257233
H           2.46820045774133   -2.89246271440485    0.44392808480861
H           1.08524071741897   -2.88802433694710    1.32031426129255
H           1.85675432461045   -1.47898115928097    1.00902548046616
