    23
        -45.37330130  Gyration_radius:  2.31155712715 Dipole_moment: 5.661
 S          -0.27060176724266    0.70639796805863   -1.44744905023238
O           0.29936508992096    0.17414319465606   -2.67553090105915
O          -1.34199322066484   -0.12488452861616   -0.90723815259301
O           0.79119948307763    0.88277612157764   -0.44912470134696
O          -0.86678015793760    2.11147681845457   -1.76242066595334
O           0.13644551617557   -1.27657298068289    2.50234173071962
H          -0.65389089185207   -1.52319991289598    2.98609772553476
O          -2.31500478426791    1.97853970998741    0.41860676097485
H          -1.47358115495044    2.30716199342503   -1.00435474844874
H          -2.34942505504124    1.06722450573118    0.08248333220608
H          -1.67670664938677    1.94638222918876    1.14936614601011
O          -0.05178971708626    1.37359082100112    1.91991369667140
H           0.57431663374635    1.98002914000525    2.31908780917254
H           0.28997056762380    1.19647425886045    0.99662096135228
H           0.07392667929862   -0.31065689066463    2.35147505343109
O          -0.02991621424182   -2.22529378903127   -0.00668024674249
H          -0.65832907498396   -1.55223178345725   -0.35717854823969
H           1.16884621020496   -1.85792609497575   -0.78839853824947
H           0.09935987178320   -1.97709219265887    0.93765837004927
N           1.93082987210819   -1.37189840353829   -1.42272953008372
H           2.42855973016264   -0.69391790787960   -0.84813300864850
H           1.33963750860319   -0.78747483097823   -2.10751857877975
H           2.55556154496157   -2.02304744557106   -1.88689490574773
