    23
        -45.37330136  Gyration_radius:  2.31151675978 Dipole_moment: 5.661
 S          -0.97787679464976    0.91855312997224   -0.93059791586062
O          -1.90111470601180    0.32591149437866   -1.88590545129790
O          -0.92683925813050    2.45312327895846   -1.19815886101381
O          -1.38382538989573    0.71822246644380    0.45706492844207
O           0.36981943369314    0.37959312777961   -1.15079024088231
O           1.51724045352856   -1.46177750200860    1.86270811334985
H           1.43645567135382   -1.31545308856954    2.80694553225727
O           0.07004130036158    2.83197636485634    1.19641611796893
H          -0.52975164841342    2.84235666854212   -0.37833521910773
H          -0.58242109129020    2.12702216973060    1.34477765003289
H           0.92705569570158    2.37593386342549    1.19233996607701
O           2.04919342930945    0.93978497415134    0.70119184601481
H           1.76208836055416   -0.59738859834623    1.47207662433215
H           2.89917142126821    1.06956004361524    0.27714806682657
H           1.40627196295728    0.72727889932111   -0.03511060852578
O          -0.92667201902786   -1.85257846619733    0.81466543122079
H          -0.84221968013784   -2.07841214322361   -0.64347272290650
H          -0.02077947998441   -1.83182378052391    1.20065962221378
H          -1.21749317812242   -0.91125086171808    0.81130492604250
N          -0.79269685187724   -1.99178231769629   -1.74302136124438
H           0.16602865670046   -1.75548587306732   -1.99351629189735
H          -1.36716350937803   -1.10301455672925   -1.94262401388258
H          -1.13451276850650   -2.81034927308874   -2.23576614815854
