    23
        -45.37330126  Gyration_radius:  2.31157987521 Dipole_moment: 5.661
 S          -0.38748081546009    1.57881085322411   -0.15657440493673
O          -0.22907556209809    2.73930703721595    0.87166679676872
O          -1.43464812752023    0.68659300736221    0.33121963499267
O          -0.69593383597368    2.16461428300860   -1.45199030261118
O           0.89475781081268    0.86789415965094   -0.23173366941762
O           0.39223905973969   -2.74814633788756    0.44806091335643
H          -0.15339976919134   -3.24532259878569    1.05997373322643
O          -0.57900079277457    1.03908772936303    2.83587625463128
H          -1.20823981570586    0.72434511272635    2.16529974306328
H           0.16888000223727    0.42283190437234    2.77826121291864
H          -0.30386666507892    2.30616297706030    1.75937766509731
O           1.40422010705777   -0.61318578335401    1.79591495567933
H           0.78850018942716   -2.01742305074085    0.96643692465622
H           2.35024676104519   -0.56718106617671    1.94438486855857
H           1.22293706044947   -0.02686325927609    1.00603305743284
O          -1.18796901483927   -1.40109605205415   -1.25832522822025
H          -1.44942846366965   -0.67456135984660   -0.64639437790040
H          -0.37699390261941   -0.62121039792366   -2.21679607215505
H          -0.59993459032348   -1.98006153110997   -0.72063514473544
N           0.21906333707312    0.14007344188376   -2.74967115251247
H           0.18335786370389    0.05692842574713   -3.76028543395349
H           1.16991208812334    0.10081866025107   -2.38645646396717
H          -0.18814292441379    1.06758383531653   -2.38364352997549
