    23
        -45.37330136  Gyration_radius:  2.31148380392 Dipole_moment: 5.662
 S           0.02082733673884    1.62498791583554   -0.15542620711581
O           0.99220244971446    0.58763124570963   -0.52386873274804
O           0.76413690079335    2.68777400204065    0.70892103401144
O          -0.46697149193708    2.28375748586213   -1.35720523045297
O          -1.04813737351505    1.05338705265975    0.65764128511400
O          -0.24963047555504   -2.75258948982214    0.51761482934877
H          -0.71793592105320   -3.08154783646919    1.28699015880768
O           0.53225639072474    1.13524353755611    2.80813914534801
H          -0.31897958032908    1.01228251981782    2.35544684806752
H           1.04165362620439    0.33708046402051    2.59375600156889
H           0.82579976009295    2.28515091364299    1.61190491137158
O           1.63107046588790   -0.99141545666220    1.38989905051859
H           0.45630870309491   -2.16473772469029    0.85792332518999
H           2.55739569230697   -1.20961676765140    1.27427602280788
H           1.40041671856149   -0.37228091037438    0.63876754640693
O          -1.81917426932496   -1.00810099619056   -0.79236600119834
H          -1.69646810954511   -0.24260357448202   -0.18450137896427
H          -1.12933110699505   -0.47505386078172   -1.98588049212383
H          -1.28242241247618   -1.73125511736306   -0.39355692164375
N          -0.52454089195192    0.09656207729545   -2.71132691326167
H           0.44322986611881   -0.20690897348088   -2.61687056511473
H          -0.55022541953751    1.09711085551014   -2.31372596003871
H          -0.86148089802471    0.03514264801266   -3.66655175590377
