    23
        -45.37330143  Gyration_radius:  2.31145131739 Dipole_moment: 5.659
 S          -0.54163641607782   -0.26123770041843   -1.51710309769188
O           0.29414125004996   -0.88703054549737   -2.53011721690143
O           0.18171101866660    0.86251715037169   -0.90948930737950
O          -1.80676247938761    0.31295160043917   -2.22348553595975
O          -0.98738763459861   -1.19431280815734   -0.48703226802753
O           0.69603655586863    0.23895114623793    2.71419698294141
H           0.15799391242856   -0.14523909774653    3.40865247113741
O          -0.92239494201310    1.81386115595964    1.19744945890788
H          -0.77093292796964    2.76046150782354    1.18895043129084
H          -0.48945549971263    1.46052032638351    0.36771721362865
H           0.10790750944594    0.84291043106115    2.21525526158591
O           1.22891711587204   -1.63994751249595    0.86747609833741
H           1.14489140234973   -0.97690223922185    1.59089717534316
H           0.35068356560141   -1.63355945205445    0.42094796478976
H           2.05363200336620   -1.08460134197004   -0.22590723419021
O          -3.04747599674905    0.40592195312941    0.08355296945987
H          -2.54503306061711   -0.42382011457094    0.14422885394351
H          -2.54218383039063    1.03819816209434    0.61972075853648
H          -2.45911115813893    0.46617573241747   -1.49385907760890
N           2.44287670645071   -0.60736159906998   -1.14227445293075
H           1.66318528852437   -0.79207205769618   -1.86182961819728
H           3.34969018171979   -0.95673032565763   -1.43432717565973
H           2.44070741531724    0.40034562864313   -0.99362064535160
