    23
        -45.37330144  Gyration_radius:  2.31151298709 Dipole_moment: 5.659
 S          -0.53069447339056    1.21397861777751   -0.95343693666144
O          -0.65120548294745    2.73504783098143   -0.63608041228021
O           0.81880953251886    0.78111737416052   -0.57025364097197
O          -1.53368666263592    0.50939692422201   -0.16093809368455
O          -0.70980248745120    1.03792933999632   -2.38633279516289
O           0.61842878010199   -2.07537522027899    1.79438049243561
H           0.04420497737839   -2.29462676114517    2.53035632180139
O          -1.09582860955388    2.16929604642609    1.88439079497417
H          -0.28419892425363    1.73766871998337    2.19661090265770
H          -0.80698527188910    2.78067359364868    0.34115992285906
H          -1.58284359199638    1.46889155256965    1.41874573286481
O           1.18632220748138    0.57996511551261    1.95718329070997
H           2.09001740451727    0.84927504234324    2.13018732358071
H           1.05929564387823    0.66860445389212    0.96888407901398
H           0.85381680087581   -1.13068088911697    1.90305962193027
O          -0.82919412356243   -2.01114198770009   -0.46934388884954
H           0.02153148258062   -1.67059645309586   -1.62863279133164
H          -0.26680502191777   -2.14909672968862    0.32736623379482
H          -1.25536440888365   -1.13471945485388   -0.32426113394310
N           0.60070081521678   -1.17606233027781   -2.42807186238275
H           0.71888490232083   -1.74323268636991   -3.26114678752487
H           1.48872897139024   -0.87624283451174   -2.02918105233457
H           0.04586754021412   -0.27006928448148   -2.60464532149820
