    23
        -45.37330140  Gyration_radius:  2.3115229343 Dipole_moment: 5.659
 S          -0.80259211685320    0.85743740524607   -1.13408555723014
O          -1.14291233044035    2.37810397211560   -1.16155357032719
O          -1.60484869320273    0.23689457624859   -0.08431996147155
O          -1.07269777932690    0.31178258135401   -2.45525979515536
O           0.62746353634921    0.72322896708640   -0.83023379291947
O           1.10176012048104   -1.46558476411585    2.13306853975527
H           0.63598803521455   -1.57480469989523    2.96405404013413
O          -1.27029130748425    2.39174013774071    1.45638795619190
H          -0.37511432237175    2.16662247969046    1.75726573391916
H          -1.21934515256562    2.63985624696968   -0.20914286001695
H          -1.67414362270394    1.53801406540838    1.22689324836247
O           1.23888302190827    1.20061277109959    1.61146680097171
H           2.09754435249606    1.62697901684967    1.60594860423812
H           1.01444315545464    1.02585231631784    0.65235683760804
H           1.18794639093370   -0.49991963669025    1.99266353683233
O          -0.52543094451464   -2.15932110301752    0.10957812474703
H           0.15542824181112   -1.99922919626737   -1.19202270125763
H           0.11809328829978   -2.01854714804243    0.84178227112143
H          -1.07546746957059   -1.34193101555731    0.10091259700471
N           0.57473793242418   -1.64080970127914   -2.14852818928524
H          -0.13447491411122   -0.89221225707339   -2.45898035484952
H           0.71285854763305   -2.37327338978171   -2.83706676200521
H           1.43217201014367   -1.13149163440093   -1.94118474637641
