    23
        -45.37330132  Gyration_radius:  2.3115226363 Dipole_moment: 5.663
 S          -1.31163374067493    0.42608300666093   -0.87459772015998
O           0.12700966274090    0.49699270544133   -1.15845051196997
O          -1.91567763579925    1.84191153161817   -1.11906810184332
O          -1.94540663839689   -0.49937513173735   -1.80089736621649
O          -1.53603825154131    0.07808918874442    0.52504966039142
O           2.06758966428724   -0.69405177293037    1.77536963296975
H           1.97392491742660   -0.59262724270770    2.72426499656645
O          -1.06140027666306    2.60661116548622    1.23833045841329
H          -1.68033621343890    2.36307794830422   -0.31020991065265
H          -1.35429617088691    1.69436290702402    1.40179735574161
H          -0.09344347157917    2.54868812250468    1.19196294317212
O           1.50171930424714    1.70859781834060    0.63231269372864
H           1.91387380666706    0.19302942392864    1.38918978219699
H           2.20096983648652    2.17980320540400    0.17609060389036
H           0.97366578654076    1.24629132119972   -0.08041987703612
O          -0.03554914843568   -2.06844743321930    0.82124188336216
H          -0.69151421858961   -1.33377989478353    0.84529635287013
H           0.07161526374405   -2.24148676353779   -0.64252908514052
H           0.79559471710517   -1.67172110029504    1.17046710628543
N           0.03251222737381   -2.14419074400519   -1.74162134777214
H           0.79371544067893   -1.53027613512091   -2.02684932072317
H          -0.86797751690117   -1.57602519274076   -1.90299592534582
H           0.04108265561299   -3.03155694357960   -2.23373428273068
