    23
        -45.35981436  Gyration_radius:  2.32613211727 Dipole_moment: 5.669
 S          -1.21759455634339    1.66446800400298   -0.59763221529359
O          -0.76434239331687    0.74921337706606   -1.61937320433194
O          -0.07619510222290    1.82905120682435    0.44876790270554
O          -1.64071341560703    2.94511996661424   -1.01904116972583
O          -2.31479242361165    0.93609240767095    0.23139755036062
O          -0.06435023921564   -2.21935017114791    0.41455759754123
H           0.32630597551259   -3.07596219183652    0.59032352195634
O          -2.27612976147635   -1.34547423039378   -0.89321597128300
H          -1.58408855109134   -1.83899160809802   -0.40950867578218
H          -2.42440194154407    0.01021310825909   -0.17059934450396
H          -1.82345241259969   -0.93914623784829   -1.64627702124611
O           1.36333465254666   -0.87217386966407   -1.22923124000112
H           0.54975845665299   -1.75193103492333   -0.24432950398377
H           0.67733613952052   -0.26414395196582   -1.55864755706192
H           1.98972553058409   -0.29876246854988   -0.72753921802734
O          -0.40146468650066   -0.14491968505095    2.05819945972359
H          -0.24810556778999   -0.96971728432821    1.54371143410747
H          -0.13812123688848    1.06907972478825    1.10926566851554
H          -1.34814750485871   -0.08922214756861    2.21547582100045
N           2.78155160794875    0.93065384644381    0.23317152454196
H           3.55263550484989    1.40968561842960   -0.21447001674140
H           3.07140366790377    0.68078058521209    1.17033559852050
H           2.00984822754535    1.58543702606638    0.31465904900814
