    23
        -45.37330141  Gyration_radius:  2.31150358597 Dipole_moment: 5.661
 S           1.12440812366707    0.90587319591787   -0.76165432738126
O           0.22522618160409    1.60205726642239    0.15338050538040
O           0.93403281231850   -0.54615130563987   -0.65820563421096
O           0.96167768627613    1.32055341163347   -2.14649529400083
O           2.58783653149634    1.22610388043586   -0.33154456690705
O          -1.98043619565882   -1.30063484068871    1.51497084490675
H          -2.32333261102648   -0.92407025333257    2.32744785457422
O          -2.11366301141908    0.54096357140758   -0.43802728246477
H          -2.17039604577856   -0.17814573860013    0.23260284742764
H          -1.33484612689070    1.07771390188091   -0.16233377439160
H          -1.58876409343103   -0.00159810934632   -1.70844341546940
O           1.87446811485298    1.07783451845709    2.18653702648034
H           1.11136251926846    1.51499855532791    1.77275166562302
H           1.58929383055688    0.15923511621598    2.31816160992148
H           2.57495668923201    1.19872781417329    0.65858260207393
O           0.72788603980701   -1.41794505588929    1.74213187257445
H          -1.01244968461100   -1.38464790728684    1.63972056850514
H           1.15363400012599   -2.27664644273256    1.76479387264692
H           0.82158164142973   -1.09133483266192    0.80125574176904
N          -0.97280045207080   -0.32343612427079   -2.56638482818048
H          -0.17900338433195    0.40414804843470   -2.58168821429312
H          -1.48361067396428   -0.37906746795538   -3.44144988554433
H          -0.52706191145805   -1.20453124190657   -2.31610976904151
