    23
        -45.37330142  Gyration_radius:  2.31161858162 Dipole_moment: 5.658
 S          -1.45825810402552    0.56035397812995   -0.47310120571695
O          -1.31805521823932    0.18581339251225    0.93068442059212
O          -2.67212599874619   -0.22202650526353   -1.05897195049756
O          -1.70610009531766    1.98138792029171   -0.66178170889724
O          -0.26303676499987    0.16565298872547   -1.22858554450281
O           2.35978851495570   -1.07378679237926    1.09205929088375
H           2.34840129759471   -1.61225377494093    1.88542194536519
O           1.02678012782435    1.21316374897461    1.55723654373449
H           1.61812560432521    0.43948576184275    1.40967065823649
H           1.01497252991796    2.07070756481552    0.35361158498978
H           0.11500109746763    0.84480859197092    1.49692325486880
O           0.61120647939965   -2.17808520210539   -0.67492534045359
H           0.95195046604988   -2.54890105320193   -1.49069053616419
H           1.76706780100882   -1.51866554134584    0.45137174467510
H           0.27102121607551   -1.26719240941651   -0.90988652663015
O          -1.97750359387586   -2.33169726452313    0.33284435913927
H          -2.60372819091400   -1.12985694774738   -0.66836866836214
H          -1.10621455926508   -2.58889907779123   -0.00952666957085
H          -1.79399207793908   -1.60053166145796    0.94631070152015
N           0.79604254569886    2.57760735415523   -0.60246508808823
H           1.14795307840770    1.98840345071017   -1.35513932515932
H           1.14798886709783    3.52795880001121   -0.65367922303465
H          -0.27728503248592    2.51655268804525   -0.66901272691331
