    23
        -45.37330145  Gyration_radius:  2.31148839751 Dipole_moment: 5.659
 S          -0.61654348156058    1.30458807361070   -0.76257978191998
O           0.52326816040257    1.53259373292876    0.12020558949625
O          -1.76757346356131    2.25499957300474   -0.31417002295593
O          -0.32066504280939    1.58425219288418   -2.15921096567815
O          -1.09729573715757   -0.07613985361492   -0.62935310960270
O           1.22294181497479   -2.03259867727770    1.51075555292506
H           1.71960077870653   -1.83911343074677    2.30781930300781
O          -1.13146275912307    1.83482578885926    2.19381931879882
H          -1.28676396983576    0.88795534323967    2.34153615864940
H          -0.26417841550282    1.87597944595562    1.75704220343036
H          -1.74202513707271    2.23782106195259    0.67595289521911
O           2.11879043734978   -0.47493931053984   -0.48791439313120
H           1.67202653720261    0.35841550718784   -0.21105359090265
H           1.86355017360220   -1.13376125230323    0.19828069074489
H           1.37283585046384   -0.73907291003216   -1.73610385373678
O          -1.24187442486744   -0.91532389719942    1.78701671829467
H          -1.20350855952251   -0.59413496911735    0.84043239508166
H          -2.00700278388144   -1.49080701924256    1.83734253252170
H           0.32422984493466   -1.67003296639381    1.65387726441189
N           0.65573689118463   -0.75976472280782   -2.57532240186735
H           1.06400178520007   -1.04989991412426   -3.45783508848107
H           0.27383201904273    0.24705235981988   -2.59298286953994
H          -0.13192050816782   -1.34289416605094   -2.29755453476121
