    23
        -45.37330137  Gyration_radius:  2.31137845958 Dipole_moment: 5.656
 S          -1.42584732113088    0.39506491612574   -0.68949266118615
O          -0.11377929762800    1.05366555899060   -0.69648058223252
O          -2.48323276304373    1.44480752360540   -0.23259050800391
O          -1.76556903014984   -0.02766421940774   -2.03934845679239
O          -1.43770230903016   -0.70214194197560    0.27311682789198
O           2.27771554077630   -0.85375721063124    1.41135777487193
H           2.20737112217449   -1.31518499847723    2.24891639928602
O          -1.80149830941563    1.03746991310295    2.26538846613198
H          -0.87494486249141    1.32065369538225    2.32692903064025
H          -2.39061982791750    1.48870030228749    0.75272377503435
H          -1.76040030571046    0.14449355725078    1.88386570186722
O           0.87345388046457    1.46552663820194    1.63156908092754
H           1.34699528176818    2.29812784014910    1.59072923775541
H           0.49192163709223    1.32316158117185    0.71788623196399
H           1.81301238709755    0.00042783495844    1.52996981620494
O           0.71071114942333   -2.07098387118354   -0.40157608897345
H          -0.15151005134307   -1.71466633711571   -0.08468996368949
H           0.78375569167511   -1.38356060048622   -1.70766728690837
H           1.37850207251810   -1.68953960967236    0.21373798890736
N           0.64955197734779   -0.72752620757502   -2.58558545988609
H           1.14243578186483    0.14453458448912   -2.40049785881033
H          -0.39725423890246   -0.47796434949453   -2.54459514165674
H           0.92693180456006   -1.15364460969803   -3.46366633333774
