    23
        -45.37330127  Gyration_radius:  2.31155769852 Dipole_moment: 5.664
 S          -1.17836442731239    1.10649285651312   -0.23371609909159
O          -1.89300196223143    2.02046302624297    0.80699090476595
O          -1.52578389731323    1.58250630792969   -1.56372370649346
O           0.26910995964004    1.23824381035100   -0.02738267221909
O          -1.60272456260525   -0.26851009172627    0.01046217545342
O           1.78919048312624   -2.10688004592623    0.51742999721031
H           1.51821461887018   -2.89387351157731    0.99348823159576
O           1.15627852771904    0.04336723528673    2.05815127523831
H           1.60311187392607   -1.35045396390246    1.11151813672415
H           1.86503678763854    0.58488537631692    2.40963406658735
H           0.81966945998680    0.52563509895648    1.24902146032693
O          -1.56100472939654    0.17863192630674    2.64270124977789
H          -0.60002006422023    0.09118878820836    2.74878936341167
H          -1.86567737971935    1.51057223074068    1.65577075561725
H          -1.76897376586730   -0.34321070442519    1.84955008450827
O           0.06400724112268   -1.65086475122161   -1.49204966935103
H           0.44668424489166   -0.43934938047146   -2.24706357653707
H           0.76801453756212   -1.87190366067036   -0.83959775171892
H          -0.66785437913938   -1.27409396270919   -0.95071386741165
N           0.59035588925857    0.58445841833230   -2.63449267695045
H           0.78937326746587    0.62378483972251   -3.62871328617600
H           1.31253410032839    1.03148446120752   -2.07213202398848
H          -0.32817584373526    1.07742569650871   -2.36392238127748
