    23
        -45.37330144  Gyration_radius:  2.31144250755 Dipole_moment: 5.659
 S           0.48375202605435    1.41228820041362   -0.65963960890732
O           0.64282770423456    2.80969071522949    0.01186281830645
O          -0.84359179817931    0.89363139341289   -0.30698738650722
O           0.56847495081985    1.59352793429524   -2.10057829870679
O           1.52684354777025    0.53896014237389   -0.13085275454377
O          -0.52744406208603   -2.45403893082357    1.26794261287848
H           0.09097608407663   -2.84438081446207    1.88816348973252
O          -1.05123469858959    0.07799726083873    2.11277996012617
H          -1.93867262783068    0.29297006594565    2.40492603179733
H          -0.74389202078351   -1.56581503803812    1.61995475632644
H          -0.98664978006033    0.40673354787789    1.17020159904809
O           1.24116581855303    1.64515883523576    2.28271863922974
H           0.86136329912176    2.61494004259475    0.95823019460256
H           0.44596069719655    1.14713638134703    2.53197193855158
H           1.68885326718969    1.08205636082624    1.62922930592814
O           0.77214144183041   -1.83144440134938   -1.00070604534546
H          -0.14711238481912   -1.22031300294693   -1.98319477311739
H           1.21778789786560   -1.01587754349679   -0.67358487946476
H           0.26040810226674   -2.16262573283406   -0.22706003836785
N          -0.77013131478736   -0.54695048985532   -2.59764741272656
H          -0.21629521746805    0.37657964721897   -2.58291331646604
H          -1.62676232186838   -0.35705319216064   -2.08019938733332
H          -0.94876860050107   -0.89317140163739   -3.53461745503981
