    23
        -45.37330135  Gyration_radius:  2.31146720615 Dipole_moment: 5.662
 S          -0.82842817952620   -0.67616219851380   -1.23362626227837
O          -1.06358535183661    0.74170676192493   -0.97908673140444
O          -0.00143356208312   -1.25575477833413   -0.16797036857450
O          -2.20755920350862   -1.40170417909442   -1.21396621451832
O          -0.20603017248093   -0.92804668282903   -2.52407087256618
O           1.21371642124448    1.42165250980290    2.10121863471969
H           0.82195686603785    2.21833355560059    2.46346829713256
O          -0.66988604904390   -0.53824773732900    2.19892226043540
H          -0.40853317806417   -0.83670088296234    1.28059923770861
H          -0.52176247690207   -1.29278693291478    2.77150469410105
H           0.53923434417539    0.71758188601762    2.19653401104679
O           1.37518567198635    1.65337253716139   -0.57140227992061
H           0.42655315889055    1.47963579492243   -0.77303769826875
H           1.43407473354184    1.60357403469348    0.41051758991161
H           1.96991257688501    0.44014326731893   -1.16943247286838
O          -2.97195250837749    0.11710323738964    0.78099400952576
H          -2.46726202561313    0.73337702195111    0.22415751289458
H          -2.70432300144114   -0.98541845421693   -0.46479521283088
H          -2.37210265272519   -0.09969278675186    1.51290849646316
N           2.17223188353732   -0.54824606987581   -1.61817204155086
H           3.00525014942031   -0.57433621615656   -2.19700399507558
H           1.26750173477967   -0.75640633657616   -2.16381855978937
H           2.19724083110933   -1.23297735123608   -0.86444203429940
