    23
        -45.37330132  Gyration_radius:  2.31151557695 Dipole_moment: 5.663
 S           1.18287615788900    0.10259180248546   -1.12078098772947
O           1.48228208961039    1.24660974365653   -2.13600528924322
O           1.49645123922143    0.59613174493721    0.21661136343386
O          -0.24457172798724   -0.22514469738302   -1.22231808468303
O           1.97642244632979   -1.05573083605851   -1.50136410291901
O          -1.85282556594149    0.03319606371519    2.11562620028376
H          -1.76403139978794    0.63845572576830    2.85398484272936
O           0.52827320655454    2.99773098845223   -0.43466928533701
H           1.00346274147934    2.37588810347770    0.14163080177137
H           1.15875128553813    2.07161975237456   -1.69324427050267
H          -0.40827202283056    2.76627240191840   -0.32594369875882
O          -1.80753093887107    1.50976710594461   -0.16815771675676
H          -1.20811202151447    0.83263177408972   -0.59576359979694
H          -2.59606379950163    1.54227055233191   -0.71246485554140
H          -1.88949644816707    0.58876248768958    1.30950116297093
O           0.46833681439420   -1.27430720503306    1.76271248008334
H           0.96165255843006   -0.54421475555797    1.32194320262508
H          -0.42001075377839   -0.89443729362955    1.95431856290141
H           0.37487417491999   -2.21554601202495    0.62740887297169
N           0.37609764114607   -2.71445861834106   -0.35761813314601
H          -0.49885878002296   -2.48262846041561   -0.82493085168004
H           0.54111015666817   -3.71459012279652   -0.31182940689680
H           1.13918294622201   -2.18087022561732   -0.89864722677759
