    23
        -45.37330143  Gyration_radius:  2.31142954535 Dipole_moment: 5.658
 S          -0.39349248659194    1.54643617482334   -0.34349290037772
O           0.54643644734270    1.33157517830431    0.75233843850244
O          -1.57446839911506    2.40600525053463    0.19991845222481
O           0.19626954336441    2.25322868080733   -1.46989478584069
O          -0.94466534440884    0.26526042674476   -0.80182976136057
O           0.80192254484581   -2.54784729224777    0.87880501131066
H           1.12893722236481   -2.69466301195746    1.76813591666215
O          -1.48946842333933    1.08396500416899    2.46168346034131
H          -1.75599528565826    2.04754915852997    1.10539839101600
H          -1.70931963514303    0.16706884096138    2.23045902509647
H          -0.54954724200569    1.17651308722563    2.23225716798981
O           2.15400299115470   -0.50894406028791   -0.23417448717292
H           1.73620031834270   -1.33048553856721    0.11307906575216
H           1.67394310042575   -0.24570596849052   -1.60681340721267
H           1.69242502700576    0.22305214146576    0.23680532608239
O          -1.62183921139641   -1.33002957575827    1.08505832506586
H          -1.37473358482828   -0.71021376176013    0.33977276675273
H          -2.40246488064373   -1.79994065386671    0.78685908744052
H          -0.09229380183975   -2.16004608277502    0.97677763018245
N           1.14687171660974    0.10146652497312   -2.51275598094807
H           1.71830739971932    0.08856331835172   -3.35116816237694
H           0.81604638520441    1.08874890642254   -2.23769844188898
H           0.29692560859132   -0.45155675759929   -2.60952011724039
