    23
        -45.37330139  Gyration_radius:  2.31144337499 Dipole_moment: 5.656
 S          -0.62000457297118    1.43838780878096   -0.45918533353968
O          -1.63360886236355    2.35747123842229    0.28688361849712
O          -1.17320203272665    0.07856971072389   -0.47296616928762
O          -0.49143548547027    1.92535289383755   -1.82400983587965
O           0.63888685899219    1.46661988667446    0.27891557436515
O           1.26770568728365   -2.30461015911221    0.99399456563344
H           1.87612526707837   -2.26681039495677    1.73417208193253
O          -0.70548022660126    1.50686996367565    2.58582413397813
H          -1.48029208248831    2.17873181961925    1.24914130131805
H          -0.90486196308844    0.55693343823264    2.60648903628386
H           0.09795528779656    1.57731123223004    2.04350793250770
O           1.99983827727707   -0.48897420749553   -0.84764558690141
H           1.79195851243722   -1.23708869828589   -0.24169644912630
H           1.07994926740473   -0.51257139873105   -2.00430231071759
H           1.65159693984567    0.30890521212735   -0.38634707809514
O          -1.05767952417807   -1.13271999238720    1.78156992407415
H          -1.12155538400422   -0.66486546826269    0.89966522052922
H          -1.84774622549264   -1.67145728451929    1.84994787190765
H           0.42239007529305   -1.92815110934831    1.31543399525553
N           0.25887328038280   -0.36392757971010   -2.72717779194505
H          -0.05180106227074    0.64961099500339   -2.53668465631071
H          -0.52363109579077   -0.94606345587849   -2.43321961613176
H           0.52601905364377   -0.52752446063255   -3.69231045833943
