    23
        -45.37330135  Gyration_radius:  2.31167950095 Dipole_moment: 5.660
 S          -0.10798310070781    1.58542018040568   -0.37328570780668
O          -0.16889627794333    2.81969768420266    0.57643117048595
O          -1.10384519202605    0.61201837445355    0.09116780039467
O          -0.45307134280792    2.03244038657107   -1.71412189431105
O           1.23437138354184    1.01870980915470   -0.28727671268813
O           0.51030331258959   -2.67521772699990    0.70484583299901
H           1.35079680798929   -2.94593865986853    1.07863578966877
O          -0.44807224624692   -0.63695840319066    2.22984206716775
H          -0.72169485824946   -0.14574396536912    1.40246905737678
H          -1.25348192536878   -0.77406386142209    2.73146925386923
H           0.15785587686024   -1.98086819734856    1.29928315051594
O           1.29082285259561    1.53228636207893    2.33244712083133
H           0.33103490433743    2.54408119930813    1.38592490930518
H           0.75519456125789    0.76829411618640    2.60064847807954
H           1.68978825167546    1.26769700657806    1.48659370074806
O           0.95595734199746   -1.27897302609524   -1.54797104031281
H          -0.31654051073364   -0.83582756486795   -2.15494059078077
H           1.23097403846647   -0.43348976206858   -1.12347854072698
H           0.77234398649151   -1.88729948939349   -0.79541920433104
N          -1.23635669122414   -0.30376055706981   -2.45449397345280
H          -0.97234943619201    0.73172338468837   -2.31871234590370
H          -1.95008038600968   -0.49590692285154   -1.75372405201003
H          -1.54707136028556   -0.51832035707957   -3.39633422911275
