    23
        -45.37330136  Gyration_radius:  2.311651056 Dipole_moment: 5.663
 S          -0.81651399904818    1.36118324854220    0.38280173281829
O           0.58294743490027    1.12467172313237    0.00772925877906
O          -0.82263423017205    2.16477670158641    1.71819474228590
O          -1.46216116358749    2.17589578037217   -0.63492598534978
O          -1.49997861159332    0.09325014416409    0.61871146362867
O           1.17799822285524   -2.50790156165238   -0.48146723541800
H           0.88200262105758   -3.30046791176535   -0.03023722576071
O          -0.94185495877413   -1.26507325077609   -1.56964730009918
H          -0.52494928956151   -0.03410313359222   -2.27253113599392
H          -0.14619757997684   -1.76931335066662   -1.28192830300581
H          -1.29409121096235   -0.86230397088846   -0.74235244446311
O           1.77184751869441   -0.65363758369641    1.41771101938696
H           1.32272005085996    0.05273315391417    0.86997119736164
H           1.43781772166568   -1.87481012225399    0.21956635515128
H           2.68223112945283   -0.36959407233777    1.51589889471368
O          -0.40175493743184   -0.05466984087355    3.04828589148216
H          -1.01712677316985   -0.33595401975692    2.35058239368397
H           0.46672177589056   -0.37128285360370    2.75178158885384
H          -0.64286779062565    1.49176206147030    2.42235733683800
N          -0.24428732309066    0.99219387534555   -2.56782383921519
H          -0.41236681530421    1.19858058265558   -3.54701523227257
H           0.72669814188929    1.13963326498824   -2.29777830526286
H          -0.82419993396554    1.60443116568364   -1.89788485814783
