    23
        -45.37330135  Gyration_radius:  2.31169977476 Dipole_moment: 5.662
 S          -0.77592605728941    1.42996139370109   -0.13874394046723
O           0.64979684748695    1.08443056668388   -0.08453565513250
O          -1.59340871174095    0.26354455004926    0.18023114676207
O          -1.04490697860200    2.51519111701108    0.94715064552197
O          -1.08811959882416    2.00663802473032   -1.43737767803326
O           1.05867428579110   -2.57758684572367    0.38390012717760
H           0.59910151492295   -3.23963194733473    0.90352115818787
O          -1.13676149637219    0.64609240982903    2.78308322170802
H          -1.58297924079396    0.22756986453951    2.02782090253228
H          -0.24976487423350    0.25178744899924    2.79314860155738
H          -1.09599612514204    2.01552153982331    1.80083519926155
O           1.31595366245551   -0.35376503929969    1.92861639314534
H           1.07081416932819    0.21935056869710    1.14634138406376
H           1.18897803742978   -1.80782185056763    0.97572043578299
H           2.19417429207363   -0.07449458099685    2.19289677968852
O          -0.62585867135832   -1.56709120810925   -1.45022820579140
H           0.04504347456552   -0.53650182427898   -2.26964227145002
H           0.03317398504305   -2.01035567286203   -0.86768239729337
H          -1.13677706629912   -0.97980223164244   -0.84626485694201
N           0.46859012868270    0.38993827672237   -2.69557830178401
H          -0.20783244756798    1.15032475033689   -2.34285772998811
H           0.56138620644055    0.37260140940118   -3.70590817413450
H           1.35264466401247    0.57409927028984   -2.22444679437398
