    23
        -45.37330143  Gyration_radius:  2.31147181167 Dipole_moment: 5.658
 S           0.15447824254770    1.50027512434578   -0.62336167769494
O           1.38074737305566    2.46146013574799   -0.58529059931315
O          -0.37889843944266    1.39937116901657    0.73158910955638
O          -0.80660342557246    2.03465802168535   -1.57577734872216
O           0.62649769867017    0.18911017771873   -1.08514693318893
O          -0.30316615432324   -2.43764013516557    1.36850850570277
H          -0.32624804518451   -2.47971601661835    2.32616141701878
O          -2.07747418124298   -0.60501737580641    0.52205049183362
H          -2.06903590965119   -0.50745059417799   -0.95284439163400
H          -1.51436580971483   -1.36062175206788    0.80846920922144
H          -1.54607197434477    0.19656037666673    0.73584463827555
O           2.10041273915518    1.44478613668358    1.72107652327606
H           1.13169564325620    1.47580877823765    1.79370580431798
H           2.30277904115535    0.51316318681727    1.53776318315087
H           1.86042914402985    2.23102246064733    0.25025852371887
O           1.96991604931197   -1.12305264061218    0.65782848362746
H           1.45940554464293   -0.61413910304526   -0.03574195026826
H           0.54674259006673   -2.01062492418948    1.13399613840955
H           2.65096447281789   -1.60205725488723    0.18255287806278
N          -1.87611325548668   -0.26440113558817   -2.01227923004274
H          -1.06049938947032   -0.79691144997135   -2.31038094863059
H          -1.54831799405535    0.76065399673262   -1.97008481312439
H          -2.67727398021740   -0.40523718216639   -2.61889700355769
