    23
        -45.37330139  Gyration_radius:  2.3114921185 Dipole_moment: 5.656
 S           0.19006767167084    0.93336023785038   -1.32514047092166
O           0.95869606313105    1.30215472904402   -0.14037996537836
O          -0.76535379611048   -0.13334773144534   -1.00200059196658
O          -0.62525702427249    2.18277877864506   -1.77581593454400
O           1.02664228243203    0.51643476073562   -2.43992901241977
O          -0.17901113590670   -1.36334555912683    2.45295900768894
H           0.04803738603604   -0.93993713052182    3.28284782304053
O          -1.08356693685259    2.78309994177353    0.73423009824942
H          -1.60684257515913    2.04341043416814    1.08281293794158
H          -0.16537220082664    2.46505539373836    0.75424058271359
H          -0.94944998205245    2.59364846344096   -0.93473725310301
O           1.84080894346089   -1.03083038126330    0.71130839044613
H           1.14880703510473   -1.26435740007639    1.37211014901007
H           1.52662701046946   -1.66517720230135   -0.58643926305603
H           1.65405917547166   -0.09239158623228    0.47662227184224
O          -2.01902025933345    0.20566910088761    1.20668195261563
H          -0.88031016644623   -0.81225678735837    2.04781429300123
H          -1.54645290475980    0.06963692880294    0.33563188331040
H          -2.90594304311309   -0.13535812767206    1.07944653078508
N           1.18350079118255   -1.91243389464141   -1.60610094026290
H           0.19573408627286   -2.15515131432701   -1.55177444592635
H           1.73701208420175   -2.62928087257582   -2.06366056356722
H           1.21658748539132   -0.96138076154190   -2.11072748950316
