    23
        -45.37330144  Gyration_radius:  2.3115948919 Dipole_moment: 5.661
 S           0.38933043720034    0.89969052403758   -1.30438953217895
O          -0.30878688813742    0.75005519622710   -2.57196243761491
O           1.64672193996833    1.78754406122491   -1.54901452385650
O          -0.42249221861611    1.54470502400322   -0.27705738542506
O           0.85113821641630   -0.41415484519633   -0.84014199857594
O          -0.75828711050539   -1.26362212439416    2.39574137206303
H          -0.98415233574676   -0.76174405663850    3.18084012065840
O          -2.17726379078229   -0.33143095739967    0.31192062972959
H          -1.85317054732550   -1.07619054123134   -0.92277733479804
H          -1.74301008844943   -0.76117826632302    1.08442367634789
H          -1.64659213625968    0.48251690492056    0.14901404611265
O           1.70242517532314   -0.44295519317745    1.57626314628012
H           1.38619246599872   -0.44153742690543    0.62726246875128
H           0.15066930025103   -0.99293306926031    2.15044430337452
H           2.43129174614019   -1.06491637208313    1.60851025306868
O           1.79111424279036    2.28199802174450    1.02113984074035
H           1.92282693070777    2.09346709180105   -0.64818799111242
H           0.83358843529793    2.29100286966403    0.85464982705657
H           1.95950307310614    1.42161406052504    1.43807054938642
N          -1.42717250221034   -1.45735335305312   -1.86731048000335
H          -0.60950981014619   -2.01897801628766   -1.63619678039150
H          -1.04089276567678   -0.56743883762803   -2.33528990135735
H          -2.09347176935467   -1.95816068457180   -2.44595188826459
