    23
        -45.37330144  Gyration_radius:  2.31152366068 Dipole_moment: 5.658
 S          -1.19050269426725    1.07821573707662   -0.28405393077729
O           0.26748987654404    1.22224975443010   -0.19182314410091
O          -1.83382245599258    2.11342562659000    0.68738144822848
O          -1.62658829547471    1.39775057660013   -1.63469093421056
O          -1.59743127366462   -0.25538912721979    0.14767042956739
O           1.82332254141690   -2.04167324094146    0.64492073213401
H           1.58411732361763   -2.76612606644424    1.22578427658344
O          -1.38643430702661    0.49614714009016    2.70104506451111
H          -1.64504733770177   -0.11378105422248    1.98988038235168
H          -0.42039413361051    0.41595441281419    2.75378471753458
H          -1.75332995067815    1.70506520989119    1.58634285854018
O           1.28681420533920    0.27805358546568    1.96091180547641
H           0.89894479994514    0.66323652821459    1.12321715323538
H           1.67466082417387   -1.22000183056285    1.15715214724076
H           2.01604750047529    0.85261655262640    2.20014710951023
O          -0.02989391366800   -1.81338107034147   -1.28821799060077
H          -0.72522201181058   -1.37147369757338   -0.74800290146985
H           0.29874453322363   -0.70190434585202   -2.20546815204732
H           0.71601569273519   -1.96021009758563   -0.66200709236294
N           0.41328561525250    0.26729899003875   -2.72149677410606
H           0.54086434926729    0.18576402754601   -3.72488174062993
H           1.17326011537979    0.77305129521513   -2.26972226734027
H          -0.48490103356666    0.79511109431059   -2.44787318717476
