    23
        -45.37330143  Gyration_radius:  2.31144988632 Dipole_moment: 5.658
 S          -0.95377853760937    1.31974834679761   -0.11004582669831
O           0.48986792467849    1.16419867120337    0.10643296173448
O          -1.51037087648671    2.23044345866141    1.02563351015018
O          -1.18595999784327    1.99120257132727   -1.37953127341159
O          -1.62323413736720    0.02608588424713   -0.01661274381222
O           1.36966624986926   -2.43964746939553    0.28396694698220
H           0.95142927492535   -3.21068072505480    0.67127626577161
O          -1.55391870253374    0.17250049544774    2.64846813622176
H          -1.83716518747171   -0.21515695013836    1.80340292329803
H          -0.62634173093737   -0.09776897821877    2.74347724764127
H          -1.59331131390390    1.63527689378069    1.81319569936351
O           1.10487711853684   -0.38770792272599    2.04997020779709
H           0.87700151779877    0.23154190501527    1.29812395236148
H           1.31126811392218   -1.73005054631427    0.95685078111750
H           1.89321081285074   -0.02530768459569    2.45780697887206
O          -0.20488153051538   -1.46446037136358   -1.66353954297370
H          -0.86690478338744   -1.02202982337703   -1.08333596367438
H           0.40270485081984   -0.26812035078798   -2.28281035211426
H           0.43532926772717   -1.87826169307554   -1.03983544978475
N           0.73473563181976    0.74850935565654   -2.55718226336136
H           1.51585984995601    0.99480466186152   -1.95151853274083
H          -0.08475693150906    1.36731349752618   -2.23242973205307
H           0.95467311665605    0.85756676352020   -3.54176393067956
