    23
        -45.37330142  Gyration_radius:  2.31141610348 Dipole_moment: 5.660
 S          -0.70882556679915    1.46977019124097   -0.00451009207600
O           0.14907975542647    1.15374443879613    1.13339442146744
O          -0.19764767017805    2.56242826330726   -0.81759976340458
O          -0.90164027201183    0.28104883817331   -0.84415546189882
O          -2.10297818260454    1.89291575977778    0.54929399137368
O           1.28859272888116   -2.47714601018867    0.32947998428356
H           1.55735647833357   -2.79505279492030    1.19326162189958
O          -1.92340974763257    0.04441981248826    2.39927225027046
H          -2.27964009218376    1.27078995394069    1.29963078991361
H          -1.90122050113931   -0.79820462464695    1.91765761979212
H          -1.01366103582947    0.38217109328268    2.34527343441170
O           2.22557308651354    0.01673350348371   -0.02472964693890
H           1.56464425487588    0.48297141753591    0.53780995133889
H           1.98034675188652   -0.93498190013657    0.04034658379136
H           1.82677621633038    0.54589425604442   -1.34557167158292
O          -1.36066648724361   -1.87360523813865    0.46393759421698
H          -1.97955271845572   -2.38942957163953   -0.05569593938498
H           0.32352936634252   -2.31836159629671    0.38465103513048
H          -1.19679242392039   -1.03629867335899   -0.05827953486029
N           1.31933603934766    1.01607292951990   -2.20615718644608
H           0.63383938923522    0.35281974332714   -2.56360651338176
H           1.95298966255366    1.34847685756192   -2.92561111756044
H           0.74397098830265    1.80282334082819   -1.74809235036448
