    23
        -45.37330131  Gyration_radius:  2.31177283682 Dipole_moment: 5.660
 S          -0.45393888721550    0.85669991766455   -1.31369719574239
O           0.18244861195597    1.59915948659136   -0.23018053560132
O          -0.72438502885069   -0.52445577541416   -0.89624555375377
O          -1.82146901517751    1.53752714573258   -1.62277072467509
O           0.33159366850440    0.85002909664664   -2.53822683027887
O           0.81466534824421   -1.18275094944455    2.41912458372569
H           0.91122711793145   -0.67053326662961    3.22396051456837
O          -2.19336600210718    1.93895745074735    0.94089811369782
H          -2.19606158250063    1.77214009016809   -0.73632607081625
H          -2.24309132137678    1.05318929034584    1.33517230405531
H          -1.24210267637067    2.10670410592589    0.83333069364161
O           2.18119197481576    0.01657559970390    0.43930836514579
H           1.53594503763504    0.73804870397541    0.25561648199956
H           1.77841606447652   -0.49564997275396    1.17780927040685
H           2.05306750971920   -0.74225714152935   -0.82294832469147
O          -1.69506539309114   -0.74801506247762    1.46432785096978
H          -1.33004092607214   -0.67247954845354    0.53606819511934
H          -2.31456705466321   -1.47939494758267    1.44333714751749
H          -0.11065035566365   -1.05558984494648    2.12359493295892
N           1.74811773904982   -1.16514711549729   -1.79592136011243
H           1.25140319729631   -0.33775617432606   -2.27464880553148
H           1.01883596496887   -1.85446945502590   -1.62142853209976
H           2.51782600849546   -1.54053164342659   -2.34015453049952
