    23
        -45.37330132  Gyration_radius:  2.31170218958 Dipole_moment: 5.665
 S          -0.53756840362050    1.51497710408356   -0.28792332819266
O           0.78428427269075    0.99202593462399    0.07866446571280
O          -0.90221399530380    2.64142246482919    0.72570556879465
O          -0.47561217391802    2.10740514059877   -1.61517958762047
O          -1.54712617164049    0.46675391018513   -0.17642843491939
O           0.61278633291538   -2.68434270022650    0.57205523319724
H          -0.02900466401656   -3.27741823854237    0.96671519750561
O          -1.63800470877689    0.82582427099521    2.46805856219916
H          -1.20552510790433    2.16460915963497    1.53911372543665
H          -1.95425983434353    0.45646701223939    1.62654344653405
H          -0.83311851516928    0.32207195519334    2.67006420753931
O           0.79571677548680   -0.48983592482771    2.16874261583195
H           0.80619886367569    0.09875607750260    1.36001701316713
H           0.70305549121223   -1.92904674234329    1.18936086922731
H           1.62046506424076   -0.31981964715710    2.62700993652566
O          -0.48159913611337   -1.49600679211882   -1.57586670363944
H          -1.03534201324747   -0.83974753592316   -1.09278790806501
H           0.48120092811287   -0.57125506613257   -2.20983248315320
H          -0.03036765175138   -2.01057926384442   -0.86756957457236
N           1.10392018211913    0.28731871696354   -2.51649260917648
H           0.46831569711711    1.13278567281527   -2.31337590177808
H           1.41806595061979    0.24368477220260   -3.48038221521240
H           1.87573282762525    0.36394970924936   -1.85621207533903
