    23
        -45.37330128  Gyration_radius:  2.31159619735 Dipole_moment: 5.661
 S          -0.69471192298765    0.23545694730385   -1.45916643013782
O          -0.28890060035689   -0.52692728914791   -2.62986637567936
O          -1.44444090520780   -0.55916861615895   -0.49119707258914
O           0.48883469553614    0.82894414409269   -0.82503313267992
O          -1.61339364866204    1.40009305566889   -1.93744688673011
O           0.89538713428952   -0.50750577540161    2.61692353800330
H           0.28676117445714   -0.72207051099688    3.32606188145175
O          -2.53352525762782    1.66718908990794    0.50266804653816
H          -2.08114952967543    1.70834873786419   -1.12055927342897
H          -2.45036843576054    0.70336772986144    0.40878203369635
H          -1.76791582242383    1.92825967393083    1.03938032627006
O           0.06108049996524    1.82617553091557    1.49608295307207
H           0.23706159388913    1.45334889567205    0.58474882300964
H           0.60932670127088    0.36062074469192    2.26447056586789
H           0.61929578543601    2.60169352574106    1.57396880866256
O           0.41889200796085   -2.12309090795071    0.52274682991553
H          -0.38999368185860   -1.66880089310041    0.19115687552570
H           1.33606222327783   -1.81726692323415   -0.59527849523226
H           0.68378988888936   -1.60927536796966    1.32019877096542
N           1.83975142001299   -1.41989923355288   -1.49365879272300
H           2.29413842591475   -0.54582426405079   -1.23475153841286
H           1.01672713575366   -1.13716392459862   -2.12842104436510
H           2.47729110790788   -2.07650436948797   -1.93181040100341
