    23
        -45.36514206  Gyration_radius:  2.28500051546 Dipole_moment: 7.085
 S          -0.86653196446781   -0.07198486748089   -1.74406880808711
O          -0.98798641167719   -0.27781574426444   -3.14468284259442
O          -0.38141610820303    1.29618746727611   -1.38882327821834
O          -2.27294526714464   -0.20642783226617   -1.06442824442235
O           0.00868481968851   -1.04398356175302   -1.07306896108503
O           0.00015304870825   -0.34830327519728    2.39486123874782
H          -0.05777891272511   -0.53739831919360    3.33229126172005
O          -1.63621249275839    1.35008083664777    0.93754983073091
H          -1.08429531374963    1.67047055283760    0.20334144295506
H          -2.20791842483636    0.34883472680424   -0.24846176405455
H          -1.04236803292732    0.87511378844320    1.54450465556080
O           2.02881792744475   -0.70332384810626    0.58491816770004
H           2.22548241172196    0.50899868616791   -0.31526778371069
H           1.49601489508897   -0.50807039743933    1.37762278723802
H           1.37589441745735   -1.09205728006781   -0.03740226957598
O          -1.29739238405606   -2.10986800922827    0.93068678827000
H          -2.22392455875021   -1.95118637726800    0.73511946681895
H          -0.81493649697276   -1.85521287769015    0.10964967675249
H          -0.49594275531349   -1.07557469413084    1.93176584229118
N           2.12733627571243    1.27134149485929   -1.08147335557547
H           2.58362692943025    0.96390198287153   -1.93445843055234
H           2.49192346155929    2.17030480770766   -0.78394514695911
H           1.03171492676988    1.32597273047075   -1.26623028395005
