    23
        -45.37330137  Gyration_radius:  2.31145925865 Dipole_moment: 5.659
 S          -0.46893253220626   -0.36832482561966   -1.51961261786046
O          -0.39715193693641   -1.47008867791329   -0.56477703671395
O           0.49000537993276   -0.49260628455150   -2.60643727384121
O          -1.89963358502144   -0.36232144233591   -2.13751496190959
O          -0.27085770065671    0.91480310223270   -0.83409759638694
O           0.69308898822457    0.33291351739364    2.70515848614046
H           0.42123177885762   -0.29562907979753    3.37631398036029
O          -1.54151489637465    1.13786237164628    1.37928347401430
H          -1.05192588048265    1.06811945513452    0.50971118494247
H          -0.12954561927565    0.65001159915174    2.27810078457352
H          -1.81744266879807    2.05315057805105    1.45165976986760
O           1.87293520793693   -0.98829777998807    0.68389168370897
H           1.55451143745187   -0.48128243314871    1.46600121589931
H           1.05324990966917   -1.33789981214083    0.26357157710746
H           2.30177647215882   -0.05356414810745   -0.37695811242639
O          -2.90780048905002   -0.98003315372627    0.20181970872437
H          -2.09156809636514   -1.50689644968123    0.17462013957193
H          -2.69545787776822   -0.22833915169255    0.77835825200985
H          -2.50597926650524   -0.56057427425387   -1.37963786429000
N           2.38505564893856    0.60771158019302   -1.25734694433088
H           1.95263846117999    1.49867104817895   -1.01922546026889
H           1.72042608761570    0.14850827273609   -1.96934660193060
H           3.33289118747881    0.71410598823068   -1.60353578696224
