    23
        -45.37330142  Gyration_radius:  2.31139630822 Dipole_moment: 5.658
 S          -1.49972903294466    0.61162919541013   -0.19940865164971
O          -0.21682982690881    1.24020140928995    0.13859482766396
O          -2.53958590374165    1.04137439308803    0.87895204264581
O          -1.95868742823574    1.10533851030519   -1.48857522652737
O          -1.38017875931512   -0.84230231427044   -0.15333538753411
O           2.43461528492429   -1.34314887910041    0.41569318588642
H           2.46563385344538   -2.23278531223665    0.77202330022043
O          -1.59851381845535   -0.78454203258312    2.50721321219027
H          -0.68013552053618   -0.52263390838520    2.68174157505574
H          -2.35059162609569    0.46356822237886    1.66109055148902
H          -1.56689397096593   -1.23012306915735    1.64401565758513
O           0.98427400220394    0.18213972282639    2.13909062499088
H           0.51798385608634    0.61296915436623    1.36604999671927
H           1.95643592826465   -0.80040430619518    1.07632551993670
H           1.42335121215416    0.89302823777670    2.60916806076523
O           0.73371142178025   -1.28341125263963   -1.66434703810657
H           0.65298261005674    0.07586185354750   -2.23942378131440
H           1.44700427669485   -1.31591098726320   -0.98591030509366
H          -0.10355255894742   -1.28442520435464   -1.14512565121097
N           0.41041977969813    1.12279421672277   -2.49208773600853
H           0.89182380794969    1.72336829090118   -1.82487929551452
H          -0.63437420337909    1.19709886707763   -2.24135239117723
H           0.61083659627798    1.37031520249426   -3.45551307100549
