    23
        -45.37330139  Gyration_radius:  2.31159944987 Dipole_moment: 5.658
 S           0.42842642502273    1.47181469668251   -0.56169677554505
O           1.07743163767392    1.01875036168509    0.66470679993642
O          -0.21662432461331    2.86165152109419   -0.27720362038578
O           1.35428821231084    1.62479047314056   -1.67339781675112
O          -0.64666430590558    0.54724045509801   -0.94186605550343
O          -0.59035659519065   -2.44772003226074    1.25320516884126
H          -0.43003830153465   -2.58685365067277    2.18825063099668
O          -0.92384406134249    2.03864862864955    2.10882008623292
H          -1.54596331912008    1.30945046669408    1.95476100761967
H          -0.04489202106685    1.63946716675069    1.99619464666728
H          -0.60502254348458    2.78202704718547    0.63060504563394
O           1.64570788727353   -1.49366756598980    0.10764924447835
H           1.56963957696401   -0.56566811655890    0.42971916403968
H           0.86147781780118   -1.95378516244389    0.48633038963633
H           1.43814902487630   -1.26009869040205   -1.33673675267103
O          -2.12523477342591   -0.21568986330457    1.00631319917502
H          -1.18819818640575   -1.67420398833636    1.19053213752900
H          -1.56377962883695    0.08641511533187    0.23544797861477
H          -3.01602885027031   -0.30326250045787    0.66286916407132
N           1.20201161216868   -0.85646728351942   -2.33688528970531
H           0.19837883616512   -0.95143990973258   -2.48211858333269
H           1.74564444191534   -1.27134812598779   -3.08644636644628
H           1.37549142902597    0.19994893735704   -2.21905341313997
