    23
        -45.37330136  Gyration_radius:  2.31153376628 Dipole_moment: 5.663
 S           1.35275190135747   -0.83579792303268    0.37121815323439
O           0.22693542143624   -1.60150972783626   -0.15480608686778
O           2.51040490904614   -0.84585097692207   -0.50966315001809
O           0.94811321166229    0.55058101372757    0.63490374155461
O           1.77469763264612   -1.47512955877049    1.72861542303268
O          -2.48414680430168    1.14565497613097   -0.65118332840225
H          -3.29082655215408    0.62752590061854   -0.66832610372683
O          -0.74786150381866   -1.88036879719199    2.31547839320330
H          -0.71533529677427   -2.07425444796392    1.36366395812251
H           0.92261620597966   -1.70434032123425    2.17877214596432
H          -1.14328029668600   -0.99556608482249    2.37214717437138
O          -0.61253603122236   -0.08254297815553   -2.13815914336249
H          -0.37201945180295   -0.78381270860404   -1.48925906456313
H          -1.32013945692152    0.43742397508501   -1.69200012930235
H           0.64950585049247    0.68632833869964   -2.13300487216590
O          -1.32880611377266    0.78858669000334    1.78513726055276
H          -2.11460702411785    1.04648339182251    0.25067582464859
H          -0.43212613442782    0.70776744156793    1.34913599027917
H          -1.26446605713648    1.53796630216751    2.37958451346477
N           1.64033222220763    1.12373136116037   -1.91844634703056
H           2.16474313689031    0.31382005358943   -1.44009988637136
H           1.51829810187952    1.83088484638968   -1.19545509855330
H           2.11775214952267    1.48241923358440   -2.73892935808184
