    23
        -45.37330131  Gyration_radius:  2.31162800324 Dipole_moment: 5.664
 S           0.57827993096137    1.22641461015620   -0.91046168490122
O           0.92189632512418    1.04048646249862   -2.31177899339201
O           0.59424831791019    2.75543406170379   -0.60928609716171
O          -0.78428994298808    0.73584606971671   -0.66957209135942
O           1.51879451182785    0.57984106344492   -0.00057986985485
O          -0.71983328883862   -2.08110144356224    1.74944230224585
H          -0.22349161099150   -2.26566722559194    2.54880262968573
O          -1.42102854459325    0.54651527929278    1.80470833604497
H          -1.00822607537901   -1.14726041136992    1.81600075158857
H          -1.18889858044404    0.62983264441108    0.83520443602651
H          -2.34947962573749    0.77568455671755    1.87231375294133
O           0.77981531416433    2.24189994290514    1.95452109854980
H           0.63697593894770    2.82072924966052    0.37822330604130
H          -0.04056526091869    1.77597286611045    2.18338066116164
H           1.34718820200208    1.55985022096409    1.55769126769484
O           0.96800745910285   -1.97489484674437   -0.33959081524579
H           0.32738703577860   -2.12957993497246    0.39230551528587
H           0.23548743914175   -1.68953587893872   -1.59077279321448
H           1.33505555598932   -1.07754672651827   -0.16400507419188
N          -0.27431356606709   -1.23293172490449   -2.45726664919866
H          -0.27433244624071   -1.81552493194700   -3.28807605200569
H           0.25483312588738   -0.30408517260496   -2.58809609463120
H          -1.21351020464603   -0.97037875042762   -2.16310783210579
