    23
        -45.37330143  Gyration_radius:  2.31148466318 Dipole_moment: 5.659
 S          -0.65674502356835   -0.01189364791165   -1.49441236989617
O           0.09733723001841   -0.45409656581513   -2.65718397238481
O           0.11431368978422    1.00292469304975   -0.76586351483778
O          -1.97022145443039    0.65883375483229   -1.99840131006579
O          -1.02562990019833   -1.10635553531438   -0.60190175812456
O           0.90125012664884   -0.20670008753882    2.65595148999528
H           0.41594412031495   -0.70557673955062    3.31548272837697
O          -0.82146254063898    1.58295274550452    1.54758945649410
H          -0.45505453948190    1.37539879112599    0.64021424601442
H           0.27929851489724    0.46640610890686    2.30989232306130
H          -0.66701994732239    2.51918246212235    1.68447983838697
O           1.28563134748953   -1.74910306337966    0.48895619313398
H           1.25912627879789   -1.21569515215719    1.31654364573240
H           0.37599978499844   -1.67720397876045    0.11729953524924
H           2.02637321148684   -1.01325655203947   -0.55669235242140
O          -3.03011316491977    0.35815543255129    0.38024722784877
H          -2.56460419426100    0.68387796492471   -1.20635339477219
H          -2.52643130226569   -0.46498234394055    0.26440778861056
H          -2.48405138972946    0.89838167204022    0.97390479196961
N           2.34633637808460   -0.38799369978233   -1.40861210199543
H           3.22716919630057   -0.67597714377726   -1.82203267675126
H           2.35900444007059    0.58134598445435   -1.09579652728559
H           1.51354914791714   -0.45862509954773   -2.08771927632767
