    23
        -45.37330145  Gyration_radius:  2.31151561297 Dipole_moment: 5.659
 S           0.20022569094475    1.52353654467032   -0.55059015187143
O           1.11772973263079    2.65707221827671   -0.00066501644335
O          -0.87185267306219    1.30554482786537    0.41565823632158
O          -0.28625014317301    1.93356645959381   -1.85884556063774
O           1.01750069024689    0.31181137831301   -0.68813653512280
O          -0.53443599916257   -2.49215918653457    1.18892341994964
H          -0.98581091526507   -2.56185857479553    2.03200415902610
O           0.84529433557130    1.69495713723753    2.42249026301880
H           1.19129855356049    2.47776790315015    0.97077709546312
H          -0.04231114994706    1.57773353781815    2.04421710440858
H           1.24333167684251    0.81000894317920    2.39276277509265
O           1.59331346940861   -0.83231155120457    1.53087480868468
H           1.38717487091820   -0.38658367574596    0.65941367120138
H           0.25656238527046   -1.93639795533342    1.34738906451068
H           2.47802058027495   -1.19008130832226    1.43914516619558
O          -1.97194210035688   -0.92550174425003   -0.45486776403006
H          -1.49833356101666   -1.59527150859716    0.09031266815360
H          -1.72091308718682   -0.05921936430158   -0.05837517541127
H          -1.30550006276037   -0.78641061320198   -1.76662235691383
N          -0.68875519338171   -0.48730768294541   -2.63212330885053
H          -0.57074596028980    0.57384157445773   -2.49092684058928
H          -1.09476121746019   -0.73026077443532   -3.52979383308353
H           0.24116007739651   -0.88247656489251   -2.50302188907670
