    23
        -45.37330139  Gyration_radius:  2.31148810857 Dipole_moment: 5.663
 S           0.27136350808521    1.53609581328882   -0.48175096866122
O          -0.00959430416182    2.86984801976429    0.27417215755131
O          -0.94953191978275    0.72275760671439   -0.42520173570370
O           0.57688148097611    1.85979549169939   -1.86669024549637
O           1.36676230190046    0.85521816036978    0.20164210874146
O          -0.19562151626175   -2.61468370576506    1.01627544658398
H           0.36755478252339   -2.92441532183110    1.72783038696568
O          -1.41154746423000   -0.33351781629207    1.86272477267522
H          -0.66359094038256   -1.82623231530162    1.36133348321791
H          -1.24934284906112    0.08540539353805    0.96893252862490
H          -2.36270422615126   -0.33450104504718    1.98271907765848
O           0.40469272890523    1.65563666985476    2.56012752528558
H           0.06915553619408    2.64058383977083    1.23465537495447
H          -0.29201370174495    0.98246897682865    2.62246221874125
H           1.07800449957796    1.25932124883845    1.98200176395085
O           1.33029709414673   -1.53245748566518   -0.91331734715159
H           0.49497591839671   -1.04055225549538   -2.02853751397139
H           1.51576304559650   -0.67479948587477   -0.46526494697946
H           0.77105841619953   -2.03139246195869   -0.27425032741090
N          -0.13873669463570   -0.45942977807878   -2.72131491518567
H          -0.06206797497799   -0.74985893845889   -3.69057538610275
H           0.18407185154739    0.55400992799800   -2.55309260895241
H          -1.09582957265490   -0.49930053889954   -2.37488085933219
