    23
        -45.37330138  Gyration_radius:  2.31155324873 Dipole_moment: 5.660
 S          -1.03079737356259    1.19223646265156   -0.42725487070005
O          -1.61011221075922    0.01900303797081    0.21969630828977
O           0.43525192701680    1.12436425680169   -0.38891933156801
O          -1.47419018757238    1.36182941982462   -1.80235129127846
O          -1.47060576391180    2.45074301617178    0.37983060680614
O           1.52767836309913   -2.17397747355385    0.92205980052871
H           1.21191240213356   -2.75502283935968    1.61637108615413
O          -1.17275508650940    1.11426639812618    2.61490941709755
H          -0.22790101213693    0.89579585253489    2.65908520980196
H          -1.40895956099712    2.17918134389314    1.33050203856322
H          -1.55083924827874    0.44872498812006    2.01594245974058
O           1.40187530037427    0.37530026521928    1.86237486482389
H           1.03668965758620    0.68260274317479    0.98321474677392
H           1.52596922253728   -1.27019832663710    1.30004203386847
H           2.21821016311974    0.86124720885836    1.99103107246179
O          -0.35778727862232   -1.96454819203594   -0.98152121486441
H          -0.95477435080877   -1.34285942130293   -0.50423295176184
H           0.09132314683415   -1.07156180434050   -2.06969208654209
H           0.38542250286750   -2.12605855951852   -0.35569902790285
N           0.32623541602075   -0.22242180168933   -2.73514003780000
H          -0.47124751675624    0.47230927048777   -2.53250739962611
H           0.39861749691723   -0.47586380106592   -3.71502086372611
H           1.17078400141037    0.22490794565876   -2.38272056914143
