    23
        -45.37330139  Gyration_radius:  2.31170411584 Dipole_moment: 5.660
 S          -0.66941673291921    0.97608508579756   -1.12416247880887
O           0.68664027219798    0.90151519973590   -0.56686599811110
O          -1.57855557256342    0.12456293359603   -0.36340230803879
O          -1.16170738157680    2.44823423047749   -0.98432351495184
O          -0.63217202040524    0.64742937852895   -2.54087680940141
O           0.84397737103628   -1.72348660310476    2.05712427976219
H           0.24824507545675   -2.00949662660384    2.75186642606628
O          -1.76671430213062    2.00115450053192    1.52691871800310
H          -0.92317017738483    1.79664315271720    1.96169610305734
H          -1.43897798059191    2.53640927132780   -0.03750407361330
H          -2.02647874537035    1.17141986457447    1.09254058676151
O           0.78573605524572    0.99532772672094    1.99174416397698
H           0.76072802978038    0.97230579107541    0.99205320290009
H           0.84944666294950   -0.74436750844826    2.08757935336160
H           1.58016745993843    1.47973853127325    2.22271463630830
O          -0.29947381428430   -2.17973827015703   -0.33210949635617
H          -0.92401516960008   -1.41782986412839   -0.32328558569773
H           0.58715849819492   -1.74561063418371   -1.43246295942427
H           0.17975065087715   -2.11880969442261    0.52616763744565
N           1.13288825590786   -1.19654103280199   -2.21932086962268
H           1.87806494859729   -0.66713245704212   -1.76998415471291
H           0.41555213868336   -0.46155526582337   -2.54409020500199
H           1.47232646796254   -1.78625767963142   -2.97201665390185
