    23
        -45.37330137  Gyration_radius:  2.31156066648 Dipole_moment: 5.664
 S           0.17256619704907    1.53103001368825    0.54050352500947
O          -0.79150728114915    2.57007570226300    0.21319153376300
O           0.61469075872712    0.86558810545380   -0.69115501469074
O           1.41626385902437    2.21354756855989    1.18579962093763
O          -0.34400496006369    0.55009187379386    1.48989392802938
O          -0.32838304101122   -2.72531350315582   -0.61322224276739
H          -0.33834705299331   -3.39995756122672    0.06810985136043
O          -2.08004150733063   -0.79035340513449    0.02834061232774
H          -1.52670980837412   -1.54529642158134   -0.27823831789626
H          -1.53148555449645   -0.34115036367341    0.71239178167857
H          -2.09020159738511    0.27084617928758   -1.00021828631370
O           1.95771651574797   -1.28259448867179   -0.30900395384242
H           1.44694604956676   -0.43789128174805   -0.47067328550087
H           0.52573108380914   -2.25475651558858   -0.51968113217613
H           2.62372243057033   -1.32175468008518   -0.99750073824809
O           2.14910187434310   -0.09064924079297    2.19780196596507
H           2.33169478403859   -0.65987200774449    1.43285948164406
H           1.90349209824397    1.48001018780810    1.63959679201252
H           1.18216815924568   -0.11195362301043    2.29426342491266
N          -1.90753823513679    1.16066971260954   -1.62780726302499
H          -1.56179071604379    1.89208770526361   -0.91700816257583
H          -2.71908165451361    1.46543258460292   -2.15528514386778
H          -1.10500241186164    0.96216344909602   -2.22295898674332
