    23
        -45.36514207  Gyration_radius:  2.28493383075 Dipole_moment: 7.081
 S           0.42419213634785    1.57905417695425   -1.05985108787162
O           0.90389362707018    2.33896204553080    0.22475882987099
O           1.06623082972647    0.25720867468000   -1.01927607641002
O          -1.04502375669454    1.37538006339032   -0.87687807961749
O           0.74560365793093    2.33968235895530   -2.21613413852368
O           0.17907027692749   -1.32126637204342    2.01968296626237
H           0.31661802644175   -1.80605434706700    2.83451944152390
O          -0.89440132779296    1.22130492520153    1.75815585665978
H          -1.30908978788988    1.23522463305050    0.87828820752801
H          -0.64549436536294    0.29714249167473    1.93313627627671
H           0.30122755007204    2.01985616275581    0.94137608962666
O           2.32437138042620    0.00367567048187    1.26323966415423
H           2.44484134189506    0.90172681885781    1.58079251742579
H           1.04455922392163   -0.87869884488068    1.80828116017627
H           1.99812330078752    0.10066212077328    0.33811041841359
O           0.06624814837312   -2.14402140375422   -0.59333986991481
H          -1.09144750340743   -1.51197366001352   -1.35464698104014
H           0.66197033301874   -1.40001984330062   -0.83046998241869
H          -0.02261046755518   -2.06218435484155    0.37404041568252
N          -1.74391950761890   -0.83129957614279   -1.89200204159467
H          -2.72654365673412   -1.03515888467214   -1.74184267855961
H          -1.52113447009917   -0.84958978342625   -2.88215398475798
H          -1.47728499978355    0.17038693783597   -1.48778691289214
