    23
        -45.37330128  Gyration_radius:  2.31157062631 Dipole_moment: 5.664
 S           0.03340208062777    0.59998208843332   -1.51873870688443
O           0.93271204838369    0.06722954677947   -2.53051980509618
O           0.72377884124473    1.36997609903013   -0.48867498295786
O          -0.98093598586408    1.54810092083640   -2.22678418476431
O          -0.72795687696787   -0.49821683348373   -0.91084329546740
O           0.04698226824664   -0.73590946704539    2.71344043864814
H           0.19346568011714   -0.09399049799077    3.41039106267562
O          -1.54503609690609    2.65737350806749    0.08041292821751
H          -1.37432148624667    2.09155383284099   -1.49801109428612
H          -1.93540382667128    1.94911748567570    0.61743872935786
H          -0.58606298950309    2.51136926449701    0.14137674197427
O           1.98746437322875   -0.50250132823252    0.86866254929427
H           1.64407668857599    0.30533485522238    0.42125539084724
H           1.34284387129950   -0.67971043466417    1.59191891466399
H           1.79045100462028   -1.47848431640467   -0.22350420863985
O          -2.02853113358466    0.15506555380245    1.19780307791405
H          -0.73642364114740   -0.42381597071176    2.21478623698643
H          -1.53672109973048   -0.10837064092603    0.36755256253733
H          -2.84399138093994   -0.34899774119262    1.19010789619137
N           1.49780483342331   -2.02191739888725   -1.13888493884640
H           0.56527760706742   -2.40360713742017   -0.98950154884908
H           2.16651442278181   -2.72744153976150   -1.42975592547233
H           1.37061080794404   -1.23213984846178   -1.85992783803951
