    23
        -45.37164086  Gyration_radius:  2.38040024508 Dipole_moment: 5.944
 S           0.77892798162231    1.22094960937007   -0.07841192567160
O           1.77133099292517    2.22354634522666   -0.76957476836784
O           1.39946621002788   -0.09862062472536   -0.12815851795526
O           0.55272308453856    1.66984106895693    1.28108722255265
O          -0.43360058563142    1.26004748608108   -0.89961405202788
O          -1.86233973289682   -1.78073797028519    1.25921265559078
H          -1.83384860463796   -2.09330244271178    2.16462429641838
O          -1.96388903485028    0.87353728993319    1.41487939326242
H          -1.04950029683902    1.18918878776032    1.56793578044613
H          -2.18739046147234    1.24604323017691    0.55746454650106
H          -1.93574884561285   -0.79716853248291    1.31910347880345
O           3.25098838431660    1.37342784179115    1.25829163094891
H           2.47246634371690    1.62406259662503    1.77542751031070
H           3.03454475080266    0.49960414216968    0.90690763008321
H           2.55507716672314    2.17401852346378   -0.18973745757909
O           0.08897281520619   -2.34549040321882   -0.45216959178100
H          -0.53873191443856   -1.63508871260151   -1.54410882939974
H           0.72887518537846   -1.62703500569523   -0.23977543665885
H          -0.60685508560678   -2.27974108758765    0.24375126860788
N          -0.97249246420427   -0.87283746374916   -2.23680396462058
H          -1.97641562863096   -0.98965012320300   -2.32756731998216
H          -0.52228948330534   -0.89602433060918   -3.14529039503883
H          -0.75027075712394    0.06142978534350   -1.73747318445498
