    23
        -45.37164086  Gyration_radius:  2.38040257865 Dipole_moment: 5.943
 S          -1.43265666151024    0.16503109078948    0.15419826663957
O          -1.43189152826154    1.60197019686597    0.34419405704299
O          -0.81480531412229   -0.55661885030015    1.26937687570546
O          -2.92411419610972   -0.32748758619816    0.12686699508756
O          -0.82968365515869   -0.22432903561848   -1.11609285926178
O           2.71680359586113    0.91104855603631    0.11973093452423
H           3.06898686926393    1.71592032335041   -0.26289476353952
O           0.78616936238137    1.68516911335268    1.77900494171440
H          -0.01032219701636    1.85686437168693    1.23559106907489
H           0.51921703684491    0.95158118602154    2.33977428027295
H           2.02434197489006    1.20204036868324    0.76174956687603
O          -2.91800669005140    1.36229688008139   -1.91490606607362
H          -2.54034417588207    1.96588136827148   -1.25965109769953
H          -2.16791050345012    0.82989755482093   -2.21121790186227
H          -3.29778412462312    0.18071075556802   -0.61813579800565
O           1.66061252529037   -0.98935275551678   -1.40621262570474
H           1.35809026402360   -1.85008379753288   -0.28422152151034
H           0.74045490381018   -0.65117275434547   -1.50460834045943
H           2.15285791637329   -0.26009778522359   -0.96048438063697
N           0.95179420384379   -2.32167457183633    0.64391788665125
H           0.17405446040163   -1.63161902035245    0.94488020756371
H           1.66278213355725   -2.38214137931772    1.36543106760671
H           0.55135380964786   -3.23383422931954    0.45370919597721
