    23
        -45.37164083  Gyration_radius:  2.38028729312 Dipole_moment: 5.942
 S           1.28289454075263    0.67153386164097   -0.07403432016927
O           2.63895381501088    1.05846994748791   -0.76634775820041
O           1.16312225377044   -0.78072718766484   -0.14834131998964
O           1.31804200237899    1.14973696533855    1.29377537772473
O           0.24642138045748    1.32349086241014   -0.87826960156068
O          -2.49401810825755   -0.63680810175616    1.26421037573212
H          -2.61902663949902   -0.93736149578289    2.16548842277527
O          -1.25945787124083    1.71267570050506    1.45123686904280
H          -1.27191813484708    2.16003203039728    0.60056957126985
H          -2.06757614491366    0.25166848650189    1.33620653897397
H          -0.30869098881604    1.52785298859191    1.59628318418828
O           3.50959891987013   -0.45126655939639    1.23048749200221
H           2.96317495442426    0.14505738164652    1.76169228125063
H           2.88394763873226   -1.09450192600124    0.87169928586586
H           3.29711018326504    0.61441847151484   -0.19835851628964
O          -1.09508071088974   -2.06931623989716   -0.48107807719687
H          -1.29081902128171   -1.12272496462694   -1.55638077584747
H          -0.18090713339043   -1.76925847060923   -0.26885019805786
H          -1.66126176720229   -1.67721840977611    0.22497976823968
N          -1.29019809594045   -0.23442532868770   -2.23467789572265
H          -2.21909095717936    0.16629042892792   -2.31451603792611
H          -0.91573522802549   -0.46397799697530   -3.14883730103656
H          -0.62948487718241    0.45635955620231   -1.72693735505968
