    23
        -45.37164076  Gyration_radius:  2.3805913071 Dipole_moment: 5.946
 S           0.67672819733861   -1.28119543636849   -0.08023520473498
O           0.42819769834935   -0.61332065582853    1.19297461585480
O          -0.49656611678957   -1.19564361031039   -0.95340486184049
O           1.88934341012311   -0.81022349889634   -0.71934480490962
O           0.84449347585710   -2.81248637017586    0.22738783501669
O          -0.31994096289477    2.77951555196728   -0.62954976845534
H           0.34366123502141    3.46706601458902   -0.55737141826739
O           2.86365884031316   -1.79967995515165    1.61352754960144
H           3.07235050448861   -1.37281021029119    0.77064326570683
H           2.17422964963991   -1.24357209490191    2.00002087743708
H           1.63579836670618   -2.82507425681272    0.79884050685762
O           0.70166039442465    0.96067997869350   -2.28144078620045
H           0.04626713314219    2.12208948602171   -1.26985892640628
H           1.31244787758103    0.40228594148030   -1.75775254833666
H           0.01714048099117    0.34455930209844   -2.55655113643749
O          -1.16207091492441    1.44694524375643    1.50861760030079
H          -2.09178627272169    0.64025716372249    0.74847963862741
H          -0.47160572235956    0.74683700342132    1.56889004957941
H          -0.83597225375511    2.06621969036673    0.81375930845142
N          -2.58703051952557   -0.08257811592530    0.05524461345035
H          -1.74927210143945   -0.60832173426762   -0.38487340436827
H          -3.11149177589445    0.40252680656172   -0.66542750476344
H          -3.18024063366403   -0.73407627374815    0.55742451382088
