    23
        -45.37164082  Gyration_radius:  2.38038860849 Dipole_moment: 5.945
 S          -0.41794433348226    0.04493503824873    1.38721969439745
O          -1.13116437435192   -0.52056188379819    2.66767428326818
O           0.33836028486705    1.22070262832937    1.76983163181574
O           0.43763799294636   -1.01744323909390    0.86919147313441
O          -1.50290968744179    0.34613821194037    0.45010255114141
O           1.25501243814729    1.08754573040216   -2.33887115932277
H           2.13619648928661    1.45997679002833   -2.39422798045839
O          -0.02243925164303    2.52573310324797   -0.50049240244572
H          -0.96371499021035    2.33300631023207   -0.52791768881271
H           0.25332547108972    2.18551966920122    0.37545366683196
H           0.77079892008117    1.64481484428303   -1.68207356494611
O           1.41009102277232   -0.66012232431256    3.40773712663351
H           1.50962212767123   -1.15408720143165    2.58313510418994
H           1.41543186748857    0.26796827758552    3.13396559499753
H          -0.37905757606995   -0.69802081123378    3.26409996748142
O           0.88262252309801   -1.45751103877049   -1.67596735232671
H           0.90251759452493   -1.39223823858736   -0.69299187281236
H          -0.55698392004174   -1.37125838059469   -1.77756985214520
H           1.15137386492235   -0.56370780623837   -1.99499063833433
N          -1.64327514003770   -1.14381395475898   -1.64486318488066
H          -1.65454521800016   -0.53439473267713   -0.75055336672294
H          -2.18540536897527   -1.98794132703973   -1.49616838860832
H          -2.00555071665299   -0.61523966495006   -2.43172364208066
