    23
        -45.36514194  Gyration_radius:  2.28489227638 Dipole_moment: 7.090
 S           1.27627036350029    1.27039713444322   -0.74588389661279
O           1.54343487563991    1.86911436571037    0.67817629151555
O           1.35961067871827   -0.19001895461998   -0.59988188234052
O          -0.14318747496432    1.61429096496035   -1.06276608416008
O           2.20522330607595    1.80978763510156   -1.67586537384011
O          -0.96749209631732   -1.19925823846117    1.86469179053959
H          -1.28392341401792   -1.66184447892804    2.64171669564971
O          -0.92963014732115    1.54326642678724    1.46040920688174
H          -1.00005870458813    1.66179998355308    0.49743664392469
H          -1.09358945840735    0.60058079555146    1.63697698666268
H           0.66741837340326    1.82149514171287    1.13528065241384
O           1.62789896422785   -0.76616231089697    1.94048368794703
H           1.94606364007215    0.04409478872847    2.34556874831338
H           0.01650397215985   -1.10532496673305    1.97677473122735
H           1.67858295565265   -0.60397902795341    0.96947879729041
O          -0.50263275725058   -2.05249760649185   -0.69894333688190
H          -1.04830077350973   -1.08570170373886   -1.74127079811331
H           0.35940145014811   -1.58233210455824   -0.67610739133370
H          -0.86720174332018   -1.89820774468535    0.19200683638916
N          -1.20683591416396   -0.24312393514660   -2.40673589352925
H          -0.74950041777962    0.61520839147807   -1.86614496560399
H          -2.19006907098490   -0.07447976018416   -2.59225680902358
H          -0.69798657697304   -0.38710478562880   -3.27314465731595
