    23
        -45.37164083  Gyration_radius:  2.38048592184 Dipole_moment: 5.944
 S          -0.32685383930019    1.26150798950446   -0.63757569289180
O          -0.79359813811103    0.92686084845497    0.70374637794797
O          -1.31163781392565    2.34206307526667   -1.21230687199253
O           1.00948625964103    1.82288268613329   -0.62929730054149
O          -0.45581414608585    0.11299611202618   -1.53788006276346
O           1.82335462035303   -1.98325522959858    0.98431546729902
H           2.56928816096683   -1.83729337165695    1.56785670712960
O          -0.33647978280189    3.62327919661056    0.89305825007786
H          -0.62097088246128    2.83114383555878    1.36794950676212
H           0.51270360207037    3.37617037771808    0.50053770850026
H          -1.18818226908154    3.08681705335863   -0.59343178169304
O          -0.65992999705929   -1.46356095758334    1.77110732926966
H          -0.71395122046608   -0.49978381492545    1.57384066963491
H          -1.24217838848487   -1.88115044758038    0.51500170038794
H           0.28737836540002   -1.69905228993846    1.63002347244625
O           2.26066626694838   -0.44757692700497   -1.14412091976756
H           1.98405619960382    0.46161759429242   -0.90734417133775
H           2.00436808059615   -1.43960487670491    0.17930615028059
H           1.65712749666909   -0.68637785396237   -1.85305199789524
N          -1.56458096857423   -1.98972040368728   -0.54952796179859
H          -2.57510539558703   -1.98294259086552   -0.63529956381698
H          -1.17169944300747   -2.82674334021076   -0.96758167591366
H          -1.14744677728862   -1.10827665521098   -1.01932532933006
