    23
        -45.37164085  Gyration_radius:  2.38045610225 Dipole_moment: 5.943
 S           1.32874202618794    0.58064132406880   -0.03426441084337
O           0.43166277897861    1.13963232298999   -1.04865703546902
O           2.03299125140303   -0.59966252698124   -0.49458177050727
O           2.38612064868141    1.70943889550667    0.24064360702837
O           0.61736368508320    0.34600229151631    1.21782514682784
O          -1.92111308316781   -2.05162051649725   -0.57187662195838
H          -1.83206206799560   -2.98803864607551   -0.38894246146829
O           3.21886051877928   -0.17308441304167    1.91005292229605
H           2.30502779133435   -0.14512214264932    2.22303784791225
H           3.18414969633509   -0.72515191503269    1.11618982864945
H           2.96430610107328    1.29508863060897    0.90919223378626
O          -1.92667445679318   -0.26152686531168    1.39057021223198
H          -0.95857086568599   -0.12894745407530    1.51679232174962
H          -2.09000957003296    0.85899810260495    0.49118267796225
H          -1.99965003049774   -1.02068985695254    0.76516988587097
O           0.13514924801619   -1.42351356782147   -2.13935598172303
H           0.91560015998946   -1.30509912917655   -1.55965429656399
H          -1.17715386892342   -1.82743626975894   -1.18231729263119
H           0.00549167308039   -0.55014673792853   -2.51922402632665
N          -1.97129672617462    1.65629196963483   -0.28288978517549
H          -0.95623842329106    1.50826695398362   -0.62833237702079
H          -2.06932145644645    2.58255707221659    0.11836835153690
H          -2.62337502994762    1.52312247821565   -1.04892897616258
