    23
        -45.37164082  Gyration_radius:  2.38044554288 Dipole_moment: 5.945
 S           0.44318486005054    0.47154106613841   -1.29803579431675
O           0.83463766877021   -0.83147049656660   -0.77089955800964
O           1.52710960026901    0.88517521870165   -2.35728720792050
O          -0.84615929837294    0.43109772108731   -1.95894881148869
O           0.51730503260522    1.50022585968499   -0.25757769513620
O          -2.00263625540012   -0.68799843861361    1.93501937035019
H          -2.75608269192219   -1.26474970642981    1.80119703474848
O           0.48289109279967   -1.59807276724711    1.71100228573118
H           0.61643911538727   -1.52044362973444    0.73794092243130
H           1.07779240354772   -0.31702196203548    2.02115153515464
H          -0.47372994672608   -1.40407046798721    1.85220884202048
O           0.57664700366956   -1.33302848780381   -3.45369205671719
H          -0.27406337343431   -0.89087971818466   -3.32304026400813
H           1.43845679725055    0.18430954929828   -3.03094067338778
H           0.78293089850914   -1.71627797077547   -2.59078971255277
O          -2.24559891292939    1.25028269671691    0.12839254462470
H          -1.91072918552441    0.89783720022662   -0.72175078860017
H          -2.11310794538953    0.04984592967948    1.28710386144461
H          -1.63485817769235    1.96494425247638    0.32890707501516
N           1.43007786813214    0.74358120935629    2.02762193999391
H           2.44079967521897    0.80010289511976    2.08986289043866
H           0.99152182761396    1.27056885595106    2.77576298740803
H           1.09717196359664    1.11450120096396    1.06679128278511
