    23
        -45.37164082  Gyration_radius:  2.38043800271 Dipole_moment: 5.944
 S          -0.56798536919260    1.07608449733584    0.78922260615912
O          -1.95782881372822    0.83620933491616    0.45515818700607
O           0.01298927222745    0.00883582396392    1.60756629938513
O           0.24856732997377    1.32866154772897   -0.39332097399898
O          -0.49187784835244    2.36376607471131    1.68592836861529
O          -0.16537846623753   -2.38734947584176   -1.58173824921145
H          -0.73755222602236   -2.53799665724838   -2.33550574546640
O          -1.60114433164676    3.34841886995995   -0.51085902759499
H          -2.21974209373935    2.61533865569575   -0.38392489310395
H          -0.89363973735226    3.04245400550886    1.11073610629600
H          -0.83702895498421    2.94533565027551   -0.94403482692698
O           1.68849308959496   -0.48529494374709   -1.62114119134732
H           1.15191500199577    0.29522017541157   -1.34988742506827
H           2.15613409937770   -0.78518545082625   -0.28598167717415
H           1.03232674218004   -1.20819425290462   -1.76104385336302
O          -1.78277203757330   -1.80117705129264    0.44812054380584
H          -2.02834626971534   -0.85724969492704    0.35988648058811
H          -0.76894248090067   -2.20440472995112   -0.82104818458849
H          -1.29443668138906   -1.82755942514643    1.27563270832046
N           2.27670644778232   -0.92743058136801    0.81592596965456
H           1.35575965982023   -0.52130449872016    1.21408610647197
H           3.06920838963682   -0.40586636176252    1.17440229489908
H           2.35457528822005   -1.91131150177440    1.05182037663881
