    23
        -45.37164088  Gyration_radius:  2.38027453348 Dipole_moment: 5.943
 S           0.63127536233994    1.21850163085750   -0.46751090635760
O           1.49621057821626    2.51875631333868   -0.29726859073541
O          -0.36191486634635    1.22159154684330    0.60130170994380
O           0.02210627013032    1.24664680366679   -1.78245231527356
O           1.57500020699876    0.11039568618577   -0.30122904800303
O          -1.52932153348930   -2.39929937418724   -0.35948686617840
H          -2.38102008203079   -2.47698300346506   -0.79168082830458
O          -0.90270965006237    3.56501056793024   -0.71593825021700
H           0.83596150255140    3.22651462956015   -0.42396406226317
H          -0.89000369755601    2.98129816538891   -1.48758789068305
H          -1.16154376883019    2.98966930285478    0.01605265576997
O           0.11264332230774   -1.36487906560201   -2.17967181338933
H          -0.04617222269922   -0.39861784587296   -2.19511245997859
H           1.02305489608864   -1.43584538839493   -1.87961924924285
H          -0.91250471462523   -2.04845065198483   -1.04715838889361
O          -1.22791487688591   -0.92576977988129    1.82978482871137
H           0.18072730685182   -1.22796167178820    1.95116813781626
H          -1.08972353841280   -0.03558317757164    1.43069755164684
H          -1.48381853116090   -1.50587993083381    1.07425509241466
N           1.28693013359812   -1.31984112673775    1.82005996710194
H           1.78878776820472   -0.94943817482454    2.61974871876580
H           1.47822331333645   -0.70856264118544    0.94761618217513
H           1.55572681149204   -2.28127280431380    1.63799582516226
