    23
        -45.37164087  Gyration_radius:  2.38029785997 Dipole_moment: 5.942
 S          -1.31222459603428   -0.61550156137939    0.03793186326337
O          -0.34869548816448   -0.77864241773620    1.12138216050862
O          -2.73797933276087   -0.87057431783378    0.64616141972931
O          -1.34215671552245    0.77218803876116   -0.43069686636763
O          -1.09845556317163   -1.56721664956891   -1.03422015028912
O           2.57102442328623    0.49209257674722   -1.17076748098311
H           3.19836484446889   -0.16609910267440   -1.47324361345301
O           1.84632538436925    0.63012722085712    1.38098787822942
H           0.96058814160850    1.75217899957146    1.16445433131567
H           1.12731116952908   -0.04328082981273    1.40100841796628
H           2.25755778524053    0.53600072042789    0.48946435395033
O           0.33958575038652    0.05052560380885   -2.55105417533423
H          -0.12525346138845   -0.69407946227646   -2.11671411248354
H          -0.26779941408919    0.78715132314534   -2.43978030119652
H           1.75486451140276    0.34971879319567   -1.70931065312665
O          -1.58932747546959   -3.22292855697326    1.06024636470821
H          -2.67778813544647   -1.80101461047736    0.93528161570476
H          -1.38774435618828   -3.15627160515583    0.11615899677222
H          -0.90637074435644   -2.69090399745810    1.48967648628584
N           0.13551411456917    2.44094466688791    0.85764446876864
H          -0.54259599079182    1.78429558388867    0.32805462809936
H           0.47621072878265    3.16615056253929    0.23494444201910
H          -0.33095557031507    2.84513902160294    1.66238992582926
