    23
        -45.37164082  Gyration_radius:  2.38035243318 Dipole_moment: 5.941
 S          -0.85936405434604    1.16678786767435    0.01549214098246
O          -1.08269428657710    1.21175268908623    1.44688704642985
O          -1.72264364282928    2.29573650938783   -0.65386456284030
O           0.52378321017745    1.47675567375000   -0.35463790861480
O          -1.28362193226169   -0.10062409247641   -0.56994546197303
O           1.62082475899784   -2.00993142995317    1.24907334292125
H           1.36947017446246   -2.57031297158224    1.98459275932144
O           1.36720241715170    0.48892160709562    2.12745409752407
H           1.78093954850517    1.09862624172801    1.51022760726304
H           0.41694413069620    0.71908333619416    2.07136075565460
H           1.56074995470494   -1.08348847803562    1.58740515855934
O           0.31611154797386   -2.11773922377632   -1.06225114405266
H           1.13976779659532   -1.10421963851725   -1.68296886537419
H           0.77364473119397   -2.23316347819686   -0.19613073012927
H          -0.43656848630225   -1.51090002141241   -0.87243689461823
O          -3.61006134884415    0.85397466942054    0.52238597218056
H          -3.20390501739408    0.12464560394381    0.03557456217931
H          -3.04498084698248    0.96828563762463    1.29953814271945
H          -2.62789360322191    2.05750360528019   -0.37703232830470
N           1.65948492442321   -0.16157540630529   -1.98360409757602
H           1.19964384972602    0.58157459466426   -1.34494967350569
H           1.48809266256020    0.06413056204786   -2.95738757922198
H           2.65507352159697   -0.21582383764590   -1.79478232952202
