    23
        -45.37164087  Gyration_radius:  2.38027030067 Dipole_moment: 5.942
 S          -0.56492131770698    1.18005062780149   -0.62463889559542
O           0.53480309476108    1.26145727473110    0.33081768564229
O          -0.36047594214124    0.07498527949748   -1.56437343584430
O          -1.85735663632143    1.13076655585564    0.02954479579313
O          -0.50770851770419    2.47944570435962   -1.50549218177843
O          -0.15421130376765   -2.40004263414328    1.56124926463025
H          -0.55150481869369   -2.49422265826720    2.42816737047009
O          -0.90929914734871    3.52183790415744    0.89806504981717
H          -1.64334132924582    2.89171571903148    0.91772244890848
H          -0.13439051626191    2.99515182833353    1.13472633296354
H          -0.65652117316924    3.18441038580674   -0.84691629115935
O           1.92598070874957   -0.79519082036785    1.17094666843152
H           1.46686523430288    0.06653262033232    1.03919643011116
H           1.21779014233707   -1.41888890018552    1.45790308484785
H           2.01824382492880   -1.10451874665279   -0.23849543655304
O          -2.09127970171096   -1.50122685345806   -0.02587973179320
H          -1.81993332741419   -1.56373702991914   -0.94585044950333
H          -0.88311878793739   -2.10036582700001    0.96518495679374
H          -2.16178189410965   -0.53606834520561    0.12475895824272
N           1.85520093087653   -1.21642918467860   -1.33851690202014
H           2.61223114922135   -0.80233664938235   -1.87142679255717
H           0.93990855080400   -0.66306379738452   -1.50431697602943
H           1.72482078755248   -2.19026244326235   -1.59237595383491
