    23
        -45.37164081  Gyration_radius:  2.3802559296 Dipole_moment: 5.942
 S           0.67956179291700    1.00187502309933   -0.79725451449057
O           1.22958660693203    1.60875112221947   -2.13771498346326
O           1.14356134674723   -0.37988922896457   -0.73048629349916
O           1.17952908197045    1.80204532296529    0.30299933073818
O          -0.77870162364045    1.05812700333419   -0.92511299586265
O          -1.04628929373511   -1.04875052091570    2.45522963101140
H          -0.57802086461944   -1.12966785590626    3.28734094406003
O          -0.96204040024180    1.53585366328473    1.82896132997037
H          -1.56989371180885    1.72065085860939    1.10767338382977
H          -1.04542342029824   -0.08398622063174    2.24171234673109
H          -0.08246463212523    1.70737569797911    1.43393354356692
O           3.49251102130996    1.02482286288745   -0.88728414692954
H           3.08726332416503    1.53126178553062   -0.16929737399522
H           3.09705554980535    0.14611940917420   -0.81417716600615
H           2.19575273643609    1.56036186877852   -2.00732479647349
O          -0.23577588609048   -2.36014233917449    0.29225475592159
H           0.45060631886642   -1.74033733118601   -0.04754577162116
H          -0.48767465359346   -2.00036172175668    1.17545367240636
H          -1.29809529259159   -1.83769870278254   -0.53765941557756
N          -1.99101256359923   -1.20266173622557   -1.14251047906381
H          -1.51526874887144   -0.23093881080160   -1.11288040909703
H          -2.91032827895041   -1.15407958946557   -0.71557314546415
H          -2.05443841900191   -1.52873055008904   -2.10073745669865
