    23
        -45.37164078  Gyration_radius:  2.38043141097 Dipole_moment: 5.944
 S          -0.36255675297477   -0.37246556361777   -1.35431578779789
O           0.43338033948106   -1.24378159931610   -0.49627897685369
O          -1.47214234797525    0.22489898363321   -0.60730364757445
O           0.44969983640600    0.61283599043133   -2.03995006771640
O          -1.04449814320010   -1.28677236133869   -2.43456568977013
O           1.20267216842514    1.72108706932799    1.95462186771986
H           2.09332348760846    2.07410160039099    1.93697579366342
O           0.04934102662670    2.55593217992073   -0.29334170826922
H           0.76471331686961    2.06093595722324    1.13666927929462
H           0.34610879836451    1.95839468990018   -1.01028606899669
H          -0.89874024662921    2.40270949627711   -0.25401338953698
O           0.76325326785596   -0.89557858484665    2.08065790398865
H           0.82372352952405   -1.13453154897826    1.12673903308059
H           1.05256704332766    0.04628119106764    2.12508665819337
H          -0.67514638486678   -0.74779847409817    2.08135055489174
O           1.51755933634865   -1.70308050966573   -2.97165117579202
H           1.54653739742516   -0.73621576012883   -2.99609405470816
H           1.56533926866194   -1.92077799779167   -2.03126728936288
H          -0.27642005977963   -1.65542638909707   -2.91098797190408
N          -1.74616436021583   -0.54589760713992    1.83381452213588
H          -2.11812649716216    0.20738866091813    2.40303577831058
H          -2.31352373319849   -1.38163351431067    1.92470113509458
H          -1.70090026092576   -0.24060590872584    0.79640333189927
