    23
        -45.37164084  Gyration_radius:  2.38040766795 Dipole_moment: 5.944
 S           0.31693478419955   -1.29112588197228    0.58017543611469
O           1.70730917273727   -1.33883393449498    0.17343636568443
O           0.01611069927758   -2.55987313121964    1.45629494707349
O           0.02205191885068   -0.12275185003147    1.40283393971189
O          -0.61006074322116   -1.38208822964480   -0.55057407265030
O           0.55151265359939    2.27522716299773   -1.65674811567032
H           1.34959599246768    2.80565232668549   -1.65567414307925
O          -0.99701721685698    2.11535303187061    0.49540049893767
H          -0.39551623864024    2.32452674260813   -0.25775357521165
H          -1.94983364258358    1.23485224609383   -0.14314209618734
H          -0.53980144828163    1.39897897733054    0.99388565795910
O           1.93833470926497   -1.41503474343572    2.87737326051747
H           2.40357997015805   -1.41912877232698    2.02897055481515
H           1.36097854789279   -0.64149833240466    2.83069643329446
H           0.65610255029567   -2.46501163558948    2.18724256428781
O           1.33742998611030   -0.21066103432974   -2.18793932819527
H           0.84059372927130    1.35927560571873   -1.88880422316741
H           1.67248313291126   -0.59340278765936   -1.35102919237841
H           0.57623794580889   -0.75993805813620   -2.39477286856008
N          -2.48250568031934    0.38288259585198   -0.63251994132796
H          -1.74707298921167   -0.41071789725941   -0.60294877724345
H          -2.71952769921352    0.60308662685969   -1.59433897660465
H          -3.30792015455199    0.11023096253134   -0.11006435810434
