    23
        -45.37164083  Gyration_radius:  2.38031169507 Dipole_moment: 5.941
 S          -1.32312675812427    0.58887112396261   -0.05081441091795
O          -2.39573231843128    1.68620905896540    0.28546550384249
O          -1.03265597315602   -0.06284187508066    1.22865923373291
O          -1.89135667912798   -0.31790251875724   -1.02841240059897
O          -0.14546318413286    1.28326037151925   -0.56075366456326
O           1.91900410796557   -2.05237137348362   -0.57521245198528
H           2.10417455155706   -2.43972382556923   -1.43191715694065
O          -2.09819959450196    2.06031635418330   -2.32146464708875
H          -2.26448094861524    1.10768205355043   -2.35620066664809
H          -2.56587415121768    2.08614335397590   -0.58854419257724
H          -1.16194420519481    2.13233013208138   -2.09326341696651
O           2.32684052458281    0.53264104257183   -0.12110507331564
H           1.88898059025702    0.45637561877265    1.25450628795258
H           2.30247569457994   -0.41796195024410   -0.38317349415022
H           1.48152205641247    0.91019265406768   -0.45847687287633
O          -0.66890380319614   -2.48365056915001   -0.13233894303564
H          -0.88140997992213   -2.29340890080583    0.78557406522515
H          -1.16443595268442   -1.79859495815587   -0.62651734427487
H           0.96632730643225   -2.24422284675230   -0.39625624919927
N           1.31353010512870    0.34661693499121    2.20650756334080
H           1.36658332591746    1.18621460353086    2.77289324139569
H           1.62483815509192   -0.46403929892822    2.73154942904037
H           0.29930712039241    0.19786481472668    1.85929565061079
