    23
        -45.36514201  Gyration_radius:  2.28499517154 Dipole_moment: 7.084
 S          -0.14911637242447    1.11629595303719   -1.59077065735313
O          -0.18881958018007    1.43477538591434   -2.97487904660869
O          -0.89686113484034    2.22348832159538   -0.77048397308050
O          -0.80263305571671   -0.15663815567483   -1.25358637902927
O           1.23714631463147    1.07570139717228   -1.03395592593898
O          -0.65263916028715   -0.59732723545405    2.25263413468369
H          -0.97849184436962   -0.79585474422387    3.13144379338866
O          -2.55029667525988    0.27245381705280    0.64861720094640
H          -1.44086772975027   -0.30246417607080    1.72227864250122
H          -2.72688861318835    1.21559581540476    0.61499140361191
H          -2.02085466364667    0.08184023928632   -0.16074712555770
O           0.48926996547863    1.78136129549785    1.40164767403102
H           0.19390770886989    0.95147081473435    1.81477751818311
H           1.09279072251610    1.53296969216269    0.68024476912292
H          -0.47799512559220    2.19403210890010    0.12514171328670
O           0.03863006647541   -2.22013210032372    0.15384012589992
H           1.34817683251671   -1.80059838716733   -0.49992505690026
H          -0.09373993831992   -1.82140213665173    1.03357657645125
H          -0.47664111984950   -1.63297050773002   -0.44147165060201
N           2.11616507587415   -1.29389147089629   -1.07569632332875
H           2.12512282326064   -1.64924268306980   -2.02646732601468
H           3.03536573154512   -1.37550352210553   -0.65377493171422
H           1.77926976225685   -0.23395971139033   -1.09743517597942
