    23
        -45.37164086  Gyration_radius:  2.38020891739 Dipole_moment: 5.938
 S           1.00738174677618    0.91074698953156   -0.50639657060171
O           1.96590785914654    2.15202592113415   -0.41686069578419
O          -0.34395486497205    1.47579067754846   -0.53483692571555
O           1.33323866365011    0.17041932819402   -1.70915872189784
O           1.21601711749606    0.12011850243211    0.70207572527411
O          -1.78281768596744   -2.23474186350127   -0.22240737782031
H          -1.55805211212610   -3.11722222153556   -0.52064594497699
O          -1.13809684656635   -0.60972571503750   -2.22798477702080
H          -1.57646287792146   -1.63637864564335   -0.98124559823128
H          -1.50716841734894    0.26458039598633   -2.07549743842559
H          -0.17157799193722   -0.45993219272789   -2.17671687336559
O           3.71948673332506    0.16481300463722   -0.41465981566595
H           3.18547461523278   -0.15949951348373    0.32256117254931
H           3.23102835740326   -0.10862268097538   -1.20389559508081
H           2.84799304224935    1.73392651269777   -0.40976937485299
O          -0.67046539065969   -1.19907895469113    1.95589427358752
H          -1.39302850439180    0.04852810160806    1.84587372728349
H          -1.07695986756575   -1.72132095377783    1.22453928133162
H           0.16828866234333   -0.84516604851800    1.57905368028703
N          -1.80206604594571    1.04333164466769    1.54225723791522
H          -1.20242030672374    1.29691232300851    0.67752175959831
H          -1.67187997738290    1.73746501628049    2.27012190565513
H          -2.77986592808177    0.97303039215925    1.28017695595931
