    23
        -45.37164073  Gyration_radius:  2.38061553164 Dipole_moment: 5.951
 S          -1.10030916367689   -0.03834215621436   -0.94471946794791
O          -1.31341655751433    0.13344509909740    0.48843645995995
O          -2.35865122155097    0.55701652648913   -1.67283124758267
O           0.02640022181283    0.77574359612194   -1.40725562322994
O          -0.97709087580770   -1.43353755287177   -1.31767671635910
O           2.33422790746054   -1.08022101593957    1.26869097884838
H           2.42644933142404   -1.95078143294872    1.65833105980692
O           0.57902310294479    0.67171631346844    2.22076491514364
H           0.94337156238738    1.69228313177239    1.26279875770448
H          -0.23439390215420    0.39099073996473    1.74100636703368
H           1.24635794082639   -0.02577349456369    2.01856320985247
O           1.66497899908208   -1.49342363085689   -1.27326845622452
H           2.11969339909730   -1.23552336418446    0.31672267090922
H           0.70265676909565   -1.67409135066925   -1.29577073199046
H           1.74997079809129   -0.67652072715386   -1.77255029305154
O          -3.47358117456178   -1.38306388549309   -0.25182396658755
H          -3.07876288791975   -0.01524251356265   -1.34598744408656
H          -2.78865208470437   -1.92190478691317   -0.67211165756878
H          -3.02096015870666   -0.95202595339676    0.48528026389865
N           1.11946821138422    2.30935520832515    0.34795842109447
H           0.67040350958747    3.21602403837283    0.41769641747473
H           0.65125655754854    1.72341289583049   -0.43247989705115
H           2.11155972583646    2.41046431531541    0.16022597995332
