    23
        -45.37164087  Gyration_radius:  2.38019149194 Dipole_moment: 5.941
 S           1.00950236025970   -0.71741055861235   -0.75272358680167
O           0.76566341243180    0.70799348916179   -0.94698826378616
O           1.91261478949521   -0.97397869974754    0.35157354498038
O          -0.25240051476434   -1.45283431013286   -0.63845690565201
O           1.67622849118875   -1.25488974900390   -2.06966828006629
O          -1.22632982254238    0.91056133754039    2.42633712691849
H          -0.79121187346821    1.35367189823537    3.15609367782941
O           0.02615972551150   -1.42033028306760    2.14847389050609
H          -0.78395704214450    0.03053724347098    2.34713176518158
H          -0.47486778701251   -1.99619965580373    1.56431484904712
H           0.84824008710886   -1.24651497999381    1.64533617917811
O          -1.30355844451434    2.00387523496594    0.00680306514774
H          -1.28593099934099    1.74640867330323    0.95877032476728
H          -0.43375085118864    1.71039751068511   -0.35112545533177
H          -2.05079335041049    0.90706804590470   -0.56709708202253
O           3.48003786487230    0.52118526099774   -1.28483882520375
H           2.72233288249200    1.12077995430017   -1.26894465926304
H           3.41976384336671    0.03560015777031   -0.45005361455718
H           2.51072786614358   -0.74942705213624   -2.10210481897682
N          -2.40362635025547   -0.07641664271899   -0.96389216021239
H          -1.52351043128549   -0.70059740464736   -0.87909759608462
H          -2.68682261623059   -0.00636607516402   -1.93520905532801
H          -3.15451123970669   -0.45311340533905   -0.39463412025576
