    23
        -45.37164087  Gyration_radius:  2.38035905658 Dipole_moment: 5.942
 S          -0.57143024075988    1.25171037061829    0.45765498138802
O           0.40701246444504    1.42687965783862   -0.61851574296229
O          -1.38851240098737    0.06440695073320    0.23056760842234
O           0.03337063639893    1.25761267496955    1.77488849763673
O          -1.52458416084487    2.49552492480249    0.34760599339238
O           1.79737105758626   -2.22584960925012    0.19857884507532
H           1.93111082626241   -2.78796279384633    0.96305663922385
O          -2.60823484097459    1.21514021129549    2.39962968596706
H          -2.62065347570257    0.46884616939870    1.78581012547421
H          -1.70146307017937    1.23386713138080    2.73680217522467
H          -2.14968708236441    2.34468086027749    1.08203617587724
O           2.35307102430699    0.24518847597575    1.01380136414536
H           1.56137720045415    0.57886183158594    1.48399970696637
H           2.03817664179774   -1.31387616227267    0.49306554742607
H           2.42705631565630    0.83336780313528    0.25719232007981
O          -0.56316436035921   -2.09101342797970   -1.01183023195873
H          -0.10278269771553   -1.14686781133012   -2.00559839807404
H           0.27706383997590   -2.29327297015152   -0.53651282978568
H          -1.01357437725153   -1.41492265967280   -0.45434067138304
N           0.27276031491367   -0.25430688804033   -2.56359780667167
H          -0.37500674531518    0.03038919815901   -3.29017995923647
H           1.19599233109804   -0.42480327802039   -2.94874484856532
H           0.32473077956158    0.50639934039058   -1.79536916765905
