    23
        -45.37164084  Gyration_radius:  2.38031853848 Dipole_moment: 5.941
 S           0.03750899745134    1.43919070468911   -0.16935144157644
O           1.35251217409040    1.65647667672855    0.40030478371999
O          -0.87183174336527    0.79328300652401    0.77134585615611
O          -0.58307781696809    2.83798096809019   -0.52412963358570
O           0.08085365583991    0.70991058607550   -1.43917273658683
O           1.17994525099107   -2.54576969552541    0.59243041956370
H           1.70805042810153   -2.76668758234733    1.36088678270905
O          -1.35203774638812   -1.78245247853742    0.84096556435632
H          -1.54146108675158   -1.62283909024558   -0.58340711412222
H          -0.44146589784379   -2.16027995473030    0.87206441696679
H          -1.23352904834692   -0.82068847421393    1.01939829093278
O           2.44680428260076   -0.53219020719292   -0.59923323132866
H           1.66992463630710   -1.82202148548798    0.13143604212307
H           2.07977350778254   -0.38452532785848   -1.47524015774285
H           2.21037638564424    0.28475780505858   -0.11361646439045
O          -0.20640739036715    3.10550111248194    2.08571782480886
H           0.69121377557107    2.81975100840428    1.86457824957081
H          -0.58535565706441    3.29031130422868    0.34084418821852
H          -0.71489896486566    2.28508712012564    2.13226089422846
N          -1.51432231418758   -1.29945786539688   -1.65301186907177
H          -2.43610356129812   -1.04072811253045   -1.98753657512056
H          -1.10379317577067   -2.01636967576631   -2.24226769157329
H          -0.87267870116813   -0.42824037259092   -1.62526640824955
