    23
        -45.37164087  Gyration_radius:  2.38030259691 Dipole_moment: 5.942
 S          -0.72252134832609    0.30000409373092    1.22081038840152
O          -1.03706197910563    0.95327911444653   -0.04532677764972
O           0.72642061128408    0.21162429670576    1.41807685493591
O          -1.23244946449483    1.24564943110635    2.36692851371164
O          -1.38820849854219   -0.98020302197690    1.35777406942330
O           0.96759520284015   -1.76545640391691   -2.04179202774547
H           0.45224127809394   -2.39854546727043   -2.54370705429886
O          -3.50625677263087    0.70131004715769    1.11891981777699
H          -3.02433973079783    1.00816544628944    0.33950395978350
H          -3.21393217543151   -0.21348200675120    1.23747864406483
H          -2.19479644880354    1.26945102579156    2.20480324161773
O           0.46740271185877    0.83903672746710   -2.18881386572105
H           0.61153780941291   -0.13171304254203   -2.28728665409862
H          -0.25463207054755    0.92211566271918   -1.52358290644997
H           1.52641837648787    1.18756281106847   -1.26807672616949
O           0.64785415734399   -2.43797401283496    0.51252248833236
H          -0.21285554081722   -2.07076903459184    0.80157724016140
H           0.87661112653942   -2.03768106302440   -1.09626185616546
H           1.28464148823278   -1.96930412198769    1.05909269759612
N           2.19027384737165    1.33005622105614   -0.38031940118113
H           3.06325655441545    0.82462106188582   -0.49078640800484
H           1.61067671360860    0.89951526262691    0.42603961211991
H           2.36212412204685    2.31273697289076   -0.19757387044307
