    23
        -45.37164087  Gyration_radius:  2.38030472266 Dipole_moment: 5.942
 S           0.55870527080448   -0.86596713883302   -1.01956409679122
O           1.62818755814896   -1.27928455734184   -2.09339221565319
O          -0.09262594753940    0.32472280296069   -1.57106205052044
O          -0.35634345677413   -1.97544217338975   -0.83875805898372
O           1.28362696835987   -0.54303046805575    0.20482373391469
O          -2.00277013900506    0.75858091581108    1.90703788302642
H          -2.38101735348137    0.20472125365443    2.59143473552242
O           2.02274696626017   -3.14353720089673   -0.25132206835412
H           1.06655951141606   -3.26319448452082   -0.33933070589590
H           2.02874901875723   -2.07448948683332   -1.69330860410205
H           2.11631301879664   -2.38483406285340    0.33981397955525
O           0.58857121182490    1.34163528477914    1.88856442961998
H          -0.36067606616625    1.13012325333874    2.05306683150496
H           0.94829696240305    0.54937095277600    1.42622401067442
H           0.49293946269582    2.15050870196571    0.69398438360859
O          -2.49721222979598   -0.49201675992819   -0.38881235636730
H          -2.21801334880733    0.31108897263441    1.05274353061221
H          -2.31686600959285    0.09439574135931   -1.12874906574560
H          -1.82134351680884   -1.19411047544876   -0.48583728570986
N           0.36306412503613    2.54205139606560   -0.34480309363976
H           0.19386725003944    1.64237793844547   -0.92229085356013
H           1.19941477266394    3.01258458412362   -0.67293431406729
H          -0.44417401923897    3.15374502019084   -0.40752873865882
