    23
        -45.37164076  Gyration_radius:  2.38056110972 Dipole_moment: 5.946
 S          -0.78521761369121    1.18146548274673   -0.30623220874600
O           0.63052188931627    1.32698375600143   -0.65378169220764
O          -1.25990140698109   -0.16483038407434   -0.60814092026581
O          -1.07202489358794    1.57077866001274    1.06012428665801
O          -1.54396889766837    2.16444362408483   -1.26837599319321
O           1.43304675422244   -1.74388215121736    1.76898748655985
H           1.11934329989015   -2.10591311428875    2.59894555860256
O          -3.57068186164769    1.13269584910689    0.09238822114468
H          -3.03837763269193    1.39812034684752    0.85557665727956
H          -2.47440338491412    2.04350289723174   -0.99879324697810
H          -3.18553883872685    0.29184018909377   -0.18808302546556
O           1.29123630922054    0.89988186253050    2.03532949995571
H           0.36124059683658    1.15886723819204    1.87031225939180
H           1.41273398402210   -0.76247671783558    1.88188321379727
H           1.77194252938333    1.32948401375127    1.32242433534060
O           0.22914994179948   -2.32103459605948   -0.52749346917385
H           1.14564472017343   -1.52159926541090   -1.31066046337249
H           0.63735619827045   -2.25545201984818    0.36793072296212
H          -0.49148636567466   -1.64927416881275   -0.52784609358869
N           1.73981350280417   -0.70235899532060   -1.78427499305739
H           2.71841221416352   -0.76177921408787   -1.52238414613446
H           1.29622519643561    0.19157680784670   -1.36481973470731
H           1.63493375904174   -0.70104011047475   -2.79301627480431
