    23
        -45.37164076  Gyration_radius:  2.38056864745 Dipole_moment: 5.945
 S          -0.06760506205290    0.74136070800231   -1.24575504665668
O          -1.15768996562719   -0.11670742411126   -0.79364681484282
O           1.22969614719085    0.09520477717379   -1.03182133592997
O          -0.20329626548434    0.87620995374529   -2.80494751261395
O          -0.13757173091099    2.06823017726592   -0.66676396568701
O           0.31436474436694   -0.22353879528864    2.84188682231521
H          -0.15360672268229    0.27493246185635    3.51334555832203
O          -2.49432167119560    1.94469048847842   -2.00928172087957
H          -1.91349724523128    2.48043502298569   -1.45086033136967
H          -1.06948726669002    1.31593747642329   -2.90171173579144
H          -2.58744284261473    1.11134721024205   -1.52874950096059
O          -0.97822483416725   -1.83840450724916    1.17526278314851
H           0.23016506936930   -2.24710948649771    0.49322136392933
H          -0.60810186045719   -1.28261358580620    1.90109824328643
H          -1.25532055291238   -1.19716809308818    0.48055463832523
O           1.53659395937294    1.58562133276629    1.32081932467435
H           0.87167405384030    1.93255470898148    0.69096713150283
H           0.79569054404347    0.44735461684549    2.29916191483089
H           2.18067658272293    1.15645247911229    0.75086365586991
N           1.16647599941311   -2.30881624393922   -0.11341065523759
H           1.23433945753546   -1.32248061078627   -0.55427338100206
H           1.09283594548736   -3.01015288973962   -0.84229941938996
H           1.97365353667000   -2.48333977737244    0.47634000415205
