    23
        -45.36514205  Gyration_radius:  2.28505478639 Dipole_moment: 7.085
 S           1.13518783544477   -0.67614719509458   -1.43261449888338
O           2.22710104891370   -1.10809156762622   -0.39381289966686
O          -0.14600046562099   -1.17660320724640   -0.91399867428522
O           1.09680737459726    0.81665037664721   -1.37294189191980
O           1.47054229462317   -1.17748789482631   -2.71907610411873
O          -0.63048172041733    0.14080017206324    2.33282939653672
H          -0.84420047455881    0.12817570293957    3.26668127181931
O          -2.22083425328525    0.09336837878566    0.10009112996062
H          -1.78469249760973    1.10719447419580   -0.94909048178381
H          -1.62949818516983   -0.59277635896267   -0.27970381603557
H          -1.83439723110816    0.26243743883762    0.97901403072061
O           1.76658151825587    0.92661808199794    1.18216699262754
H           1.53086207952351    1.25443641738844    0.29710516862447
H           0.92984968939271    0.78823301962054    1.65897064025199
H           2.18885292144800   -0.41301612074777    0.30892124319802
O           0.24702642744695   -2.18644286696930    1.46992754030463
H           0.07020157595057   -1.95854428258186    0.52731250467422
H           1.18939210810827   -2.36576785610986    1.51082543700132
H          -0.33441895923124   -0.78024885467672    2.10141721022741
N          -1.26548768132811    1.63650980837747   -1.74157883974739
H          -1.34595458513160    2.64415388002695   -1.65314988716794
H          -1.60880864503755    1.32730461848098   -2.64537927824812
H          -0.20763019520638    1.30924383547989   -1.63391621409043
