    23
        -45.37164082  Gyration_radius:  2.38028146869 Dipole_moment: 5.938
 S          -0.52903076937000    1.32967567556876   -0.23048256314392
O           0.49004701318062    0.74162795501185   -1.09344964664790
O          -1.26531193105650    2.43316022482491   -1.07189310121428
O          -1.56571223754219    0.34810124599724    0.09830698184398
O           0.04286644194373    1.95898718109738    0.94332488616088
O           1.29248283168963   -2.00768052419441    1.58846186654133
H           2.12174752416189   -1.91637236713698    2.05982653583583
O          -0.29947625930994   -0.10760510834947    2.55502088159129
H          -0.05318899054330    0.72841075857561    2.10824260675746
H          -1.20397733385077   -0.25650840136628    2.26591865613401
H           0.69054717433013   -1.32501780508263    1.97325017680763
O           1.20722556769041    3.38738726173876   -1.05035429444741
H          -0.54618038435339    3.06566208634301   -1.26068506688670
H           1.12001886753507    3.26226028677632   -0.09482444601644
H           1.43145321418202    2.51009692693105   -1.38785038260769
O           1.18761150740283   -1.78475193296384   -1.05625180532999
H           1.12096695507030   -0.80641484158428   -1.15214618474825
H           1.36777652583076   -1.93419369397513   -0.09808224244467
H          -0.23887992312134   -2.01339512443748   -1.11330057420720
N          -1.35207533503922   -1.95510223519781   -1.03191725930983
H          -1.79474979770837   -1.99256488309038   -1.94360487552717
H          -1.51042843077470   -0.98290449247570   -0.58330615321073
H          -1.71373224032272   -2.68285821301047   -0.42420397591550
