    23
        -45.37164079  Gyration_radius:  2.38032444201 Dipole_moment: 5.939
 S          -0.52264026815732    1.34657295742886    0.12199894261144
O          -0.54343478489421    2.80916915526059    0.69464654868717
O          -1.73035756751699    1.14465835750873   -0.65350232949470
O           0.69418514201511    1.27426053946003   -0.69064179677606
O          -0.44143942774824    0.44076102082116    1.26311686305418
O           0.04689450410276   -2.64333910218050   -1.11217989063664
H          -0.69784872137581   -3.24049834530401   -1.19554843060493
O          -2.75584618072105    1.82009167963113    1.76825172143323
H          -1.36734701272609    2.81607405583880    1.21802105524887
H          -2.94965628598422    1.57609606199467    0.85220618198510
H          -2.16134300083696    1.12540005092045    2.08111086346545
O           0.88374418815628   -1.82086885996673    1.27080593669440
H           0.54059807455804   -2.26274113416638    0.45849490208859
H           1.95015504239432   -1.01255333749546    0.72287953142119
H           0.27288288112742   -1.06326292683110    1.42447392355124
O          -0.63409313730634   -0.44934199197468   -2.45460185857043
H          -1.21627130653128    0.07717418762013   -1.86896915469568
H           0.13362227879768    0.11681019369267   -2.57282923925544
H          -0.19230181878378   -1.84350981440471   -1.64080123790938
N           2.57210316774569   -0.24269882349288    0.20367231550355
H           3.09425425464820   -0.65073013145167   -0.56486139246100
H           3.19246811814795    0.23276375721070    0.84992648567492
H           1.83167185090902    0.44971242987871   -0.17566995103491
