    23
        -45.37164085  Gyration_radius:  2.38023124887 Dipole_moment: 5.940
 S           0.64959421221982   -1.22745863633434   -0.41503623033429
O           1.48051087359632   -0.40952272998902    0.47201540270139
O           1.66763804268040   -2.07340619523372   -1.26089698309306
O          -0.21258297068561   -2.14223246692500    0.30650882233519
O          -0.09367092731186   -0.39039964727647   -1.35093353586835
O          -1.82486887937774    1.52082040267958    1.60577646517888
H          -2.75091855602777    1.32671651751734    1.75738990976027
O          -0.63689392635933   -2.91911819309289   -2.25998093785330
H           1.07645199077457   -2.60559361783536   -1.82674741233056
H          -0.84949827070924   -3.06885258623998   -1.32797228527766
H          -0.79854477485109   -1.97592773656201   -2.39463518495019
O          -0.49164511963442   -0.62132225568514    2.44997462695103
H          -0.54308017693181   -1.29086782314963    1.73705260356580
H           0.44778605828510   -0.42524844719705    2.50390861705382
H          -1.32868003229994    0.73979213188465    1.95243074187426
O          -0.91453632849943    2.04489133331116   -0.83386347686369
H          -1.38373850800311    1.92538501862344    0.02544175226575
H           0.44724697462605    2.23645815229953   -0.38653607234001
H          -0.76580096436806    1.13105449447544   -1.17073177572029
N           1.48521351775086    2.12340099687754    0.01193551732440
H           1.55649918441035    1.06005581967645    0.20107284909789
H           1.60397081694844    2.64038418982340    0.87702999778642
H           2.17954777377975    2.40099129835646   -0.67320341119421
