    23
        -45.37164086  Gyration_radius:  2.38037915601 Dipole_moment: 5.944
 S           0.42580179702345    1.20418323969817   -0.68681729030690
O           1.34890647674957    1.67560552632052    0.32637877796879
O          -0.97189673668350    1.25553161675359   -0.25096769847981
O           0.50476397784142    2.17811613592711   -1.91686180831456
O           0.77148065265694   -0.12776181565267   -1.17200382890593
O          -0.17822188888298   -1.72602845756704    2.28351430534476
H           0.54715795356600   -2.02684618128833    2.83267110155120
O          -0.11611110210689    0.93160331230081    2.39658332101413
H          -0.92539188519115    1.29601758081285    2.02757907960912
H          -0.17568420312248   -0.74046936557737    2.35473431135952
H           0.57401727489684    1.23116380633459    1.76958366002136
O           3.01160330547043    1.32649576162981   -1.79099650393227
H           1.44637701288072    2.12106030539523   -2.16788556278591
H           2.93181604279748    1.59939588266677   -0.86605485699844
H           2.60032100554219    0.45245857400118   -1.81957107884565
O          -0.30129669193603   -2.35273236058106   -0.29480507179387
H           0.26455198789847   -1.64415129431307   -0.68008815190848
H          -0.19075695826088   -2.26351670165292    0.68121463943585
H          -1.54547837970950   -1.64553624363041   -0.50193497915675
N          -2.35640056533164   -0.88458105060618   -0.61316848517239
H          -3.05372826259193   -0.98287625666218    0.11745944827873
H          -2.78570273103260   -0.92903546055018   -1.53093385037330
H          -1.82612809250783    0.05190346623966   -0.49762945761195
