    23
        -45.37164080  Gyration_radius:  2.3806127704 Dipole_moment: 5.947
 S           1.19530044642289   -0.79928122614141    0.19255245342061
O           0.96773202097147   -0.43432584454354   -1.20785984735383
O           2.03052785243593   -2.12858783330391    0.13645028657562
O           1.96731952711177    0.19270898704411    0.91416229995099
O          -0.06361718907424   -1.11235275024846    0.86040410473354
O          -1.48462110098702    2.45365591979084    0.05132764264204
H          -1.55632245165838    3.06675915186294    0.78427974130804
O          -2.37745529838050   -0.04000325534103    0.25329061913341
H          -1.60000328809139   -0.47666175760380    0.67217477569937
H          -2.16845457005742    0.92367090746430    0.27254646609393
H          -1.99800769807377   -0.38107705337047   -1.10023782864619
O           1.11548294631747    2.26835076733947   -0.48330670888198
H          -0.52221872667167    2.41248771869951   -0.16862196272785
H           1.50129556832024    1.64123589977779    0.16246772922533
H           1.24770085819340    1.82830896757896   -1.32755279247358
O           1.79645370093690   -1.79497510361026    2.75531772732932
H           2.16680098217643   -2.32922950085789    1.08203212467623
H           2.13662478676471   -0.91216020306798    2.55266130128109
H           0.85307302012979   -1.74092065971153    2.55278860988502
N          -1.45810955207172   -0.61275268856661   -2.05070213172834
H          -0.41818620733157   -0.58039310678329   -1.75192383392715
H          -1.64018516749709    0.09312878961371   -2.75662444942720
H          -1.69113048987810   -1.53758611600766   -2.39562631679656
