    23
        -45.36514205  Gyration_radius:  2.28490053325 Dipole_moment: 7.085
 S          -0.80700975618126    1.20527043815371   -1.30125008770771
O           0.28582100918338    0.36701237225744   -1.88117467337556
O          -0.08757323414500    2.43265548423701   -0.64277692339574
O          -1.74089901641094    1.65922860794252   -2.27107684846153
O          -1.41518254395835    0.44568522566608   -0.19924936170684
O           1.13029179801781   -0.42197676292868    2.09769314959393
H           1.54996251798286   -0.52058583708707    2.95329104555385
O          -0.65999413016457    1.50778551286720    2.07187491710685
H           0.46138307506337    0.30765230362964    2.19684250925492
H          -0.37370238679858    2.39618915080613    1.84684275629267
H          -1.09124748059440    1.16295674063772    1.25525270879602
O           2.05983057672594    1.06476536933141   -0.04929695919305
H           1.70797832816327    0.62104755442571   -0.84022947952039
H           0.78673482707475    2.07737094866206   -0.34625994365323
H           1.87474042327372    0.47758249288018    0.70412895839467
O          -0.80328896490593   -1.89978489751294    0.83517149673501
H          -0.47157059740501   -2.16697348713244   -0.62679534590798
H          -0.03359025965581   -1.60025308756190    1.35313757284721
H          -1.26176967904259   -1.06223162657000    0.60485025387423
N          -0.31262734736295   -2.08177024613906   -1.69702755733828
H          -0.04768076372748   -1.01127896218173   -1.84410481015929
H          -1.17933964884022   -2.27061668478229   -2.19048829240917
H           0.42873325370740   -2.68973060960094   -2.02935509562108
