    23
        -45.37164081  Gyration_radius:  2.38023655521 Dipole_moment: 5.937
 S           0.98076458565956    1.00416951990175    0.36020313421365
O           0.06206639698471    1.18502814603498   -0.75889509374854
O           1.43614937581278    2.43584928449574    0.81920095332281
O           0.28748628387840    0.43648851990461    1.51924995896187
O           2.16046114431443    0.25026705686969   -0.01496253844324
O          -0.79986646330833   -2.64222089732964   -0.77719883223735
H          -0.43983631671131   -3.15768756693168   -1.50028249857301
O           1.26115275235074   -2.09323178279785    0.81333523745232
H           0.94654145695312   -1.74107330943209    1.65053570315670
H          -0.04047307501415   -2.46952372427783   -0.16899602274941
H           1.73864066403170   -1.33701242481068    0.41426281680411
O          -2.02679594638878   -0.32884293691344   -1.22310113266425
H          -1.63520060011950   -1.23361669166619   -1.19437953049063
H          -2.30440775694145   -0.09721932865180    0.17690125249082
H          -1.25362525725075    0.28089008728383   -1.25842570905284
O           2.34708987261306    2.39494951166665   -1.66948613414683
H           1.89698416065633    2.77166218369546    0.02693778114452
H           2.74792246390624    1.56230155763956   -1.38273894225080
H           1.43420101449151    2.16085218394979   -1.88311008797972
N          -2.25377242428126    0.10530032542793    1.27488585432834
H          -1.19870913940442    0.28297184636059    1.43888269047938
H          -2.55929529206551   -0.70047692784553    1.81071615123410
H          -2.78747788013918    0.93017536736847    1.52646499875019
