    23
        -45.37164082  Gyration_radius:  2.38031877698 Dipole_moment: 5.941
 S          -1.07708744166285   -0.92827700460317    0.28038386066969
O          -0.90687298575446    0.31075194786414    1.03188737439731
O          -1.89490748297977   -1.91199050985008    1.19215098209383
O          -1.81735211938624   -0.72670704131592   -0.94936227130310
O           0.21163447436016   -1.59133264353200    0.06650702606437
O           1.50728163889179    1.74074685904944   -1.70968369050282
H           1.15766607292048    2.43772087322741   -2.26665588396044
O          -3.63465093777860    0.06661454884956    0.90478867449790
H          -2.74193260103516   -1.43914145343485    1.30142087185517
H          -2.90101329993477    0.61125116430037    1.21939298432612
H          -3.44934058483990   -0.06629161202992   -0.03559301826407
O           0.30357485838081   -0.49335802208786   -2.50928960137819
H           0.74138910858224   -1.25881451039719   -2.12676902392432
H          -0.58296466253399   -0.50745358570022   -2.09341108516086
H           1.08645649124984    0.90647764390964   -2.03104795189544
O           1.22932682866462    1.82632091885796    0.93047624039612
H           0.32937898408496    1.43757806800738    1.02935323117585
H           1.92827548930555    0.57803587178778    1.13975255822922
H           1.34624032953978    1.95152109336905   -0.04088852733164
N           2.25632524368724   -0.48974348016396    1.17717382854481
H           3.08775067036758   -0.63773770662950    0.61449987086091
H           1.41540388082900   -1.01570858742012    0.74389786873325
H           2.40541801502244   -0.80046284205837    2.13101566186481
