    23
        -45.36514205  Gyration_radius:  2.28503440982 Dipole_moment: 7.085
 S           0.45607630315203    1.67696527812110   -0.88217546960528
O           1.06057026890221    0.34220255140417   -0.99989901962279
O           0.97322172672510    2.27425115751010    0.47199924582039
O           0.78456784398457    2.55377715066793   -1.95085381457129
O          -1.01600146142406    1.49394824782659   -0.70059923378758
O           0.16741561633874   -1.54610170842206    1.85469122441231
H           0.30145551514758   -2.12417823677623    2.60686865348737
O          -0.83669598358853    1.03791948506509    1.89729643300415
H          -1.26161287162727    1.16226824281941    1.03107610261871
H          -0.61185969508691    0.09361586450525    1.96330270097450
H           0.37079665644157    1.89212307130741    1.15719500275436
O           2.33977242860189   -0.20154768830330    1.21940348437051
H           2.00473286609940    0.00817658105253    0.31635735702727
H           2.48976009385489    0.65125800183726    1.63426429740484
H           1.04238920410198   -1.10579737451209    1.68119390241641
O          -0.00254547305250   -2.06359324234071   -0.83229444398481
H          -1.15177121276594   -1.31897920394586   -1.49834020545405
H           0.61091247236236   -1.31361902842839   -0.99331461055903
H          -0.07627007413779   -2.08975239630722    0.13945967610543
N          -1.79197924766299   -0.56484660037251   -1.94467537782508
H          -1.49099823725466    0.37747734528467   -1.43556203260223
H          -2.77776454068000   -0.75776719260925   -1.80098908049049
H          -1.58417220843350   -0.47780030538332   -2.93440479189392
