    23
        -45.37164083  Gyration_radius:  2.3802384437 Dipole_moment: 5.939
 S          -0.47202302504302    1.31223715023935    0.39457136977682
O           0.37698825202655    1.11490106122116   -0.77556932880162
O          -1.87434043551603    1.09783916885711    0.09721065620648
O          -0.00060690449629    0.50756505769476    1.52442717997361
O          -0.28776411197148    2.80370233500688    0.85193908183300
O          -0.37447820001842   -2.73614513885223   -0.77212064191364
H          -0.95191015905030   -3.05986778381768   -1.46496507970895
O          -1.27810657621848    3.14573314396659   -1.58255084907619
H          -0.61940652648955    3.30075936799164    0.08002487135262
H          -0.54965780669499    2.56553600325930   -1.84069279369275
H          -1.96273028625112    2.54288243921486   -1.25989239772626
O          -1.94712296620049   -1.41351036292985    0.91787532464612
H          -0.96460273603546   -2.27600277917171   -0.12674742995776
H          -1.47091164750336   -1.22233769006821    1.73062397964976
H          -2.10205291353438   -0.52692683279075    0.53171829615050
O           1.65082447307045   -1.10918139316229   -1.32512057660328
H           1.18754491080200   -0.23964443175232   -1.32930452021660
H           2.07705870706855   -1.01715393304410    0.05355588709649
H           0.93082661637163   -1.78012008555919   -1.25912012602237
N           2.17421154437087   -0.81792270676259    1.14896881757519
H           2.15901617747945   -1.68163335322659    1.68143805426106
H           1.29111164356513   -0.23114656497629    1.36659107786917
H           3.00813195023586   -0.27956265135513    1.35713914734392
