    23
        -45.37164083  Gyration_radius:  2.38020351634 Dipole_moment: 5.939
 S          -0.84235828794994    0.49850899208868   -1.06884262042722
O           0.51154862694392    0.16014270645766   -1.51460690547449
O          -1.32607003330795   -0.47024968297550   -0.09082468603090
O          -0.95309402441133    1.86240803131986   -0.59093942922686
O          -1.74130395439025    0.35029306742584   -2.34848926837285
O           1.68654898300541    0.31633927058827    2.29708970420598
H           1.48568454221999    0.81886226916517    3.08789968313706
O           0.20778075295742   -1.77314293147694    1.58866342441128
H          -0.52091100355737   -1.32191656444093    1.10267123284931
H           0.99436862098404   -2.04862458832656    0.40713556275864
H           0.72858541421527   -1.04345797764957    2.00004631363494
O           1.53395209136091    2.04896276896345    0.28381302031139
H           1.66490457798739    0.96804698899305    1.55460738680117
H           1.90474506456810    1.66139714997733   -0.51379445601478
H           0.58473789740459    2.15223237544027    0.06582271181208
O          -3.54878879087188    1.06786565100020   -0.54783530737448
H          -2.62504593285030    0.59150782008613   -2.01126793492557
H          -3.18896614121183    0.32132715480004   -0.05073868508512
H          -2.92490204934214    1.78904135768909   -0.38361493234087
N           1.50136108779042   -2.02864580813089   -0.58872147276911
H           1.09995777064630   -1.13336822844469   -1.04569895141615
H           1.25964751792480   -2.84068631825327   -1.14616671376466
H           2.50761727988799   -1.94684351429837   -0.48620766671511
