    23
        -45.37164079  Gyration_radius:  2.38060225916 Dipole_moment: 5.947
 S          -1.13060508993038   -0.43681999469014    0.79715779842509
O          -2.44693200252731   -1.25473375236529    1.05410715640594
O          -0.13885518805012   -1.37322310104781    0.27898552438270
O          -1.49236399508447    0.55629002257169   -0.21727174526380
O          -0.71657994810422    0.16360421928761    2.04971828742682
O           2.36485700329922    1.55361313296224   -0.46818173407274
H           3.12704233509626    1.62798418325119    0.10781144970827
O           0.28401872781845    2.36345138300823    0.97924756949768
H           0.01129636699016    1.61045034031302    1.54296113641833
H           1.59872412005154    1.88731808791177    0.05903978476339
H          -0.47822166840596    2.50398258691679    0.41085657514937
O          -0.77193931701566   -2.46880467050433    2.71094680461790
H          -2.16564671566129   -1.89300972173591    1.73703518056855
H          -0.22655607942477   -2.55817968917830    1.91811823475397
H          -0.60673940255641   -1.56538425936664    3.01552979715412
O           1.66653796838659   -0.78044395438896   -1.52712271935074
H           1.12713506060767   -1.15723674899315   -0.79391922852452
H           0.53745023393645   -0.22165848366114   -2.23832316723530
H           2.07527728096798    0.03375279483405   -1.14936378972650
N          -0.43017826950534    0.24739214680308   -2.54170500730587
H          -0.94196604908062    0.37850304240989   -1.59682794542344
H          -0.96807345562772   -0.36498050620795   -3.14526994118289
H          -0.27768189619104    1.14813292186990   -2.98353002118348
