    23
        -45.35323602  Gyration_radius:  2.35132607256 Dipole_moment: 7.311
 S          -1.12260679394943    1.93360495268019   -0.02015587672536
O          -0.53113711767032    1.87582556641575    1.42921083296021
O          -1.77775745942271    0.68260768045716   -0.27755013368099
O          -1.85239158558185    3.12636488460624   -0.23198002213352
O           0.18628331183859    1.99335889421861   -0.87061054849729
O           0.39946940293545   -1.82692534902363    1.07827835565174
H           0.71947124528844   -2.72114257303466    1.20430902473420
O          -1.18111847297439   -0.31075138018448    2.64508236826445
H          -0.82372389380664   -0.36242305054123    3.53397181477872
H          -0.89302063065593    1.06545160113525    1.88833023318910
H          -0.69586337996476   -0.96284561634206    2.09607428429783
O           1.77206686189534    0.39161039529811    0.43752253845726
H           1.79805995635214    0.90479125653300    1.24902109786302
H           1.32352398369211   -0.45526859941498    0.65820583098144
H           0.82437097589640    1.35190058337441   -0.45387088588768
O          -0.89448582451830   -1.70962747660627   -1.10878058240831
H          -0.23632302048837   -1.36221428414595   -1.75460653655799
H          -0.14490363160408   -1.84400383780129    0.21246480605601
H          -1.44194860082835   -0.93644750335195   -0.87981707488007
N           0.97306682692486   -0.39888821515630   -2.60829989888931
H           1.82147965724252   -0.33149195792077   -2.05867394517313
H           0.54489243343116    0.52047020321256   -2.60771604123342
H           1.23259576598931   -0.62395619441571   -3.56040967118562
