    23
        -45.37164080  Gyration_radius:  2.38042371005 Dipole_moment: 5.945
 S           1.10817787588561    0.61387550767140    0.70362667343005
O           1.21722050756576    0.72945996580016   -0.75273333964321
O           0.57450868420297   -0.68974089306070    1.08410934038060
O           2.58734027965150    0.67766513626010    1.22894062268155
O           0.36595437578933    1.70607795713732    1.30114404117092
O          -2.68760336033966   -0.05903094247908   -1.00089420758390
H          -3.48749072870712    0.11666135906555   -0.50333152294194
O           1.25966202818905    0.39878462558370    3.50582247245514
H           0.87710778570391   -0.36997465220835    3.06249298322722
H           2.46851925508953    0.60697864927892    2.19524682526949
H           0.75443299590643    1.14972841820757    3.16342264699995
O          -1.20382398754526    2.13861349922837   -0.78124517222420
H          -0.75479364243505    2.09849190823608    0.08814911026656
H          -0.47674999422665    2.10879280520800   -1.40922876558016
H          -2.15327257215013    0.77048940821671   -0.94805605712546
O          -1.09809807835668   -2.09091299125840   -0.36827190309208
H          -0.55136879970915   -1.67769955236258    0.33965986762152
H          -1.80642856717083   -1.43157048623593   -0.55906108380800
H          -0.15865344452654   -1.81078104787149   -1.43087983831115
N           0.61589499945669   -1.37487123291540   -2.10866812255701
H           0.21550462176373   -1.11653780069889   -3.00463155466593
H           1.40069913449863   -2.00537324643232   -2.23177482313413
H           0.93326063146960   -0.48912640434468   -1.57383820282735
