    23
        -45.37164080  Gyration_radius:  2.38028576765 Dipole_moment: 5.940
 S          -1.25446740183558   -0.65147373522419   -0.31845970222470
O          -2.61549987237578   -0.79880449598822   -1.08892020600184
O          -1.19764915553771    0.71382924043583    0.19326967668750
O          -1.22445114349345   -1.63710642455677    0.74387228089095
O          -0.21900724045602   -0.87388886800395   -1.33061261462110
O           2.50698023111189    0.20544569240547    1.37843807175251
H           2.64641366307940    0.12836057781763    2.32330434251606
O           1.37820742369175   -2.08389544326764    0.62751033831213
H           0.42575693531472   -2.02070005397868    0.84650434058505
H           1.38234412932127   -2.15473800063770   -0.33106005874643
H           2.12076690276973   -0.65870244472009    1.09473586866448
O           0.99268341176827    2.14205462284229    0.37286860603910
H           1.59838826989094    1.52978588535348    0.85369288128093
H           1.18920827873063    1.71668871173156   -0.99488929388858
H           0.09945128995636    1.73546546263514    0.46045942792242
O          -3.48162848677413   -0.25939081341004    1.35714302911880
H          -2.89665715094282    0.50571131907090    1.27793044125287
H          -3.27214769152317   -0.65347287616456   -0.38140737536253
H          -2.89251673936665   -0.98861475602281    1.59700291686072
N           1.20051869442297    1.17568709777828   -1.97287848690484
H           0.58853874820798    0.30541950435892   -1.77416956386838
H           2.14166268087243    0.89046158568116   -2.22322583879228
H           0.78310423316188    1.73187821186400   -2.71110908146962
