    23
        -45.35323605  Gyration_radius:  2.35128305932 Dipole_moment: 7.313
 S          -1.06758623788666    1.78815721555889   -0.81418726865108
O           0.12369256816802    1.33937024319254   -1.71953988861834
O          -2.08212235305630    0.62015799014694   -1.05982231959004
O          -0.64814107969924    1.72474303440252    0.55711882782742
O          -1.56783045582882    3.01691737629223   -1.30408115974066
O          -0.14628490460369   -1.76371457420869    1.23516497973737
H           0.17523924723555   -2.51157107279697    1.74038062686747
O          -2.60506428989862   -0.67160648043734    1.11735796872845
H          -3.22394966615865   -1.39230797807216    0.98281868274210
H          -1.72650726525535   -1.06953879625589    1.29579994160178
H          -2.32728539249663    0.22090512915227   -0.17725625405601
O           1.22600410772507    0.29270938894408    1.83407719851539
H           0.40744064670269   -0.96010969701831    1.54182145917481
H           1.90275355681039    0.34118484436281    1.11947379551437
H           0.55858200217210    0.95685282225713    1.58221222524795
O           0.13286804210253   -1.24510404632784   -1.38544475681693
H          -0.73696081164186   -1.40565814743311   -1.75981595829093
H           0.22065228061575    0.35601579143377   -1.59333568334846
H           0.07420310569357   -1.48325336153134   -0.43304878102640
N           2.74521006211504    0.43029630067016   -0.43015665578591
H           3.74016563386653    0.61278745628144   -0.46576654458925
H           2.26722432479028    1.20182930150466   -0.88273848790965
H           2.55769686852474   -0.39906275011099   -0.98103194752170
