    23
        -45.35323607  Gyration_radius:  2.35136155262 Dipole_moment: 7.312
 S           1.08916591140572    1.94316912905890    0.20010908715762
O           1.88006708687921    0.89848083731060   -0.65033348581437
O           0.53145107266437    1.27462833737845    1.34135490805526
O           1.92098151939589    3.06505004500541    0.42287410257548
O          -0.08694473327784    2.28921997437434   -0.77497149817159
O          -1.92025372990443   -0.98767184788176    0.01402909578347
H          -2.52841729205712   -1.72698072668732    0.05242833738688
O          -0.03380084522840   -0.43172868767422   -1.81596426061015
H          -0.73050108346690   -0.69495174584568   -1.17379773787624
H          -0.38988180429713    0.30739704480693   -2.31546648944945
H           1.20048854355180    0.31293223746763   -1.08346597407062
O          -2.38382260444967    1.65626734830340    0.22808624024261
H          -3.11503944753024    1.85943824003535   -0.35891607396770
H          -2.29573319355226    0.67985147891341    0.25907172541025
H          -0.95137880832295    2.12093135061884   -0.30288928049312
O          -0.14905235617021   -1.27596227181527    1.81706725967976
H          -1.25781294415181   -1.13017386095556    0.78027382735151
H           0.61140070197545   -1.68046261757589    1.33846419708650
H           0.08896143285978   -0.33447907323314    1.90011703411762
N           1.92855223634650   -2.03468840182400    0.21652852090598
H           1.56723628938441   -2.16771358554216   -0.72064313371155
H           2.58247814328055   -2.78261422733116    0.41038461256751
H           2.44185586466778   -1.15993897690456    0.21565899584963
