    23
        -45.35323590  Gyration_radius:  2.35132406802 Dipole_moment: 7.305
 S          -0.83823616205557   -0.44019449226091    2.02516676688756
O          -1.19888420996681    1.06842201636662    1.80619068152911
O          -1.32576024650825   -0.91192059001682    3.26607215245757
O          -1.66255777280057   -1.10966561915766    0.87948381713540
O           0.55868103191631   -0.60392361469121    1.73854461220263
O           1.16275546855112    1.36842464732212   -1.19829522369105
H           1.66791426481803    1.66017078487166   -1.95831542011261
O           0.89018621957148    2.48158890365094    1.23890731715946
H           0.68585402535640    3.40879460335525    1.10079063262843
H          -0.35081889964118    1.58417495335113    1.69201941837187
H           1.12291208166032    2.09982190700760    0.36589193799997
O           1.93276288818817   -0.96429406959849   -0.53647376793519
H           1.27544060601152   -1.56071661549017   -0.96433242744306
H           1.53719306389807    0.44983525372683   -0.94942311683317
H           1.65073303857814   -0.92075863586037    0.39547273811057
O          -1.41061139106394    0.60918693199796   -1.06289088831535
H          -1.56032130992529   -0.52612891184157    0.07865459629696
H          -1.85612074281713    1.33639668702415   -0.62103137228579
H          -0.47383997776051    0.88533629791485   -1.17799118924286
N          -0.20046109573510   -2.37553625675910   -1.49194928672139
H          -0.78953118953544   -1.73667476004867   -2.01297227465491
H          -0.66583538114765   -2.55539907646910   -0.60885352322285
H          -0.15145431959588   -3.24694032439490   -2.00466618032256
