    23
        -45.35323590  Gyration_radius:  2.35118689087 Dipole_moment: 7.308
 S          -0.23161385902615    2.21174727758330   -0.23196869562300
O          -0.92643786346325    1.41267971952618   -1.38056960771782
O           1.27776342600852    1.96922144731030   -0.57351463424605
O          -0.57599152579559    3.57739371246020   -0.36087320486512
O          -0.51106074880271    1.55617960474239    1.01406523765009
O           1.19265369775904   -1.59969478133054    0.82329672061789
H           1.39181073911899   -2.49523713002398    1.09945876950906
O          -1.13075384135332   -0.97512242703193    1.64905059953464
H          -1.71070516481791   -1.14149343708197    0.86991836083224
H           0.27147384344099   -1.38512410071866    1.21308111353365
H          -0.99952758792818   -0.00931470416371    1.65233955088157
O           0.62562383920372   -0.66561156861492   -1.63072742472941
H          -0.41010410418199    0.56797944475799   -1.49101599393753
H           1.41242949844567   -0.18184678348977   -1.89438882912925
H           0.82684684553352   -1.06914913073398   -0.75679848563922
O           2.49980033067075    0.70135117771465    1.31864979562089
H           3.42586414834812    0.54413578047867    1.12317986418386
H           1.72471075314268    1.56987862019050    0.22606083515864
H           2.03945472360525   -0.16354048570895    1.27074530943964
N          -2.45952772356265   -1.15128829882284   -0.72926842700012
H          -3.36750307092726   -1.57629709765157   -0.86906433941434
H          -1.82269608850531   -1.53721675049948   -1.41634828477860
H          -2.54251024692383   -0.15963008889800   -0.92530821987841
