    23
        -45.37164083  Gyration_radius:  2.38041540117 Dipole_moment: 5.944
 S           0.43184408416123    0.27196184042628   -1.35704765487184
O           0.31752775651769    0.18671194026082   -2.92147213160301
O          -0.70198567368345    1.09964350044516   -0.93803459027377
O           0.30217279639610   -1.08753091714591   -0.84324981621560
O           1.71305888789227    0.86346270754617   -1.02627998161222
O           0.20148051606180    0.22785565521919    2.85198313922720
H           0.98259980325213    0.07084940730920    3.38438730776789
O           0.87470851153300    2.14144817221575    1.13017826408895
H           0.08963969641058    2.48301881543658    0.69325633192247
H           0.44153294261411    0.96305762608532    2.23694785796450
H           1.37110088570791    1.71317116036772    0.40265693943583
O          -0.88674033158641   -1.71675490456205    1.40647000496137
H          -0.44868526755721   -1.10853925860733    2.04758384789706
H          -1.94491809486201   -0.87335871264701    0.89693923836225
H          -0.33625595667309   -1.66495347259106    0.59094899887200
O           2.48004127846845   -1.28590787845298   -2.49664366073885
H           1.90187904321852   -1.76209750574072   -1.88601210961953
H           1.09015516617506   -0.36129253397773   -3.15720866789617
H           2.76619072538698   -0.50717405951254   -1.99869547173256
N          -2.56160334330568   -0.09852588364388    0.37883054772464
H          -1.83160606002257    0.42869470198258   -0.22168465812252
H          -2.98844426139262    0.53619059344046    1.04568517838540
H          -3.26369310471795   -0.51993100385734   -0.21953892388879
