    23
        -45.35323573  Gyration_radius:  2.35109604274 Dipole_moment: 7.312
 S          -0.23072240932907    2.21578705754709    0.18928481751730
O           1.26468284556322    1.77612307450180    0.08483271491981
O          -0.59483774837288    1.68914581590988    1.61890684895407
O          -0.29061991118451    3.62754228495474    0.12963650479312
O          -0.99566382216250    1.46335962097475   -0.76420208958601
O          -0.87241875696547   -1.93119589739239    0.40447417168360
H          -0.98159572498033   -2.87973670154237    0.32524927724399
O          -2.47142010013973   -0.08660918801410    1.54086709618049
H          -2.70578653630119   -0.41725189519003    2.41050712747092
H          -1.38800649199687    1.08605947255320    1.54343745655886
H          -2.00267558666117   -0.80808824811437    1.06982138386150
O           1.25096749523626   -0.53915704175228    1.28091302163999
H           0.98893392935693   -0.21326238951918    2.14556315238602
H           0.51155648047800   -1.10258612691424    0.95998349461873
H           1.31984774208371    0.86248384551469    0.47791858134871
O          -0.62734763600592   -0.92847056045491   -1.92011105889829
H          -0.92609057649032   -0.02881012993912   -1.69321140857263
H           0.34713804432380   -0.84128786949310   -2.03797336077681
H          -0.82009643637100   -1.57473715202796   -0.55311865878508
N           2.05842644076665   -0.44365411639712   -1.86337139158313
H           2.70835605361738   -0.62907876361747   -2.61678272471567
H           2.43240780673092   -0.85573218844418   -1.01676226344023
H           2.02496486881459    0.55915711686119   -1.71586270281518
