    23
        -45.35323582  Gyration_radius:  2.35127676204 Dipole_moment: 7.305
 S          -2.02260161357097    0.04346235978266   -0.95037421385088
O          -1.95994578308579    1.40209486418526   -0.17305902029383
O          -3.24276493277840   -0.09318058513044   -1.65226693741872
O          -0.87156503579587    0.24390458711380   -1.98726734327946
O          -1.64215634764261   -1.00050161344956   -0.04164753437471
O           1.13558351528597    0.31835336166083    1.80755818334447
H           1.89474492076052    0.26336419005613    2.38944423172794
O           0.73192911363522   -1.96177765799698    0.75385928805235
H          -0.21497602965835   -1.83536613279436    0.56058410925774
H           1.17265771170148   -1.89776532386058   -0.12508099546521
H           0.99230724476396   -0.62707633187489    1.44474858705482
O           0.92134835936397    1.51549832995588   -0.58770215042108
H           0.39172324548863    2.29938792628582   -0.42156502454195
H           1.06455144001964    1.08629515509883    0.28547657899139
H          -0.12131282858608    0.67903380881937   -1.49709914309871
O          -1.40304363027579    1.05256304992413    2.32701741303849
H          -1.36056696771012    1.87628448742732    2.81715711201984
H          -1.84446851746262    1.20626125139904    0.79988631000652
H          -0.48734171036323    0.70941354552115    2.25087186470267
N           1.68444922253962   -1.42145421696429   -1.74733588734909
H           0.79537351222628   -1.32599676355920   -2.22607535625856
H           2.27513176380294   -2.03022224747512   -2.29978293245111
H           2.11094330734114   -0.50257606412519   -1.72734710939098
