    23
        -45.37164082  Gyration_radius:  2.38031268468 Dipole_moment: 5.941
 S           0.91531242280351   -1.11136674723137   -0.16614096310763
O           0.58455100998160   -0.20960322427088   -1.26451011357966
O          -0.28251318726955   -1.46311038973119    0.60045230449595
O           1.39934332808519   -2.46127654982239   -0.80741357246031
O           1.98396617795244   -0.59417833601734    0.66535044356989
O          -0.88654649881251    2.43126458163480    1.23601520301157
H          -0.36570001550670    3.22293448801013    1.37835936971006
O          -1.37334205919900    1.53245627281977   -1.21550932203635
H          -1.20217705531444    2.01001545792956   -0.36962000406506
H          -0.55507086979070    1.00925265510682   -1.38130085152565
H          -2.15025169376261    0.40534927628136   -0.75026641043000
O           0.40920047594618    0.47922336290173    2.49686947466713
H          -0.42346208113870    1.71452924371083    1.73429431200447
H          -0.14878188400022   -0.30105267246706    2.55794459961497
H           1.13822394746408    0.19148102056043    1.90963309618885
O           3.22287165407491   -0.78086745824198   -1.74307379898959
H           2.19706018923756   -2.18482900900163   -1.29745157658138
H           2.45119270337995   -0.28459115495691   -2.04651308844502
H           3.30972198178351   -0.54275088655360   -0.80924276453667
N          -2.51608197897367   -0.54710200866930   -0.29397533185862
H          -2.94423481127636   -1.15167486920584   -0.98662562996022
H          -3.15622893966554   -0.36451393281214    0.47195047535345
H          -1.60705280599567   -0.99958912997415    0.08077416895845
