    23
        -45.37164082  Gyration_radius:  2.38029207258 Dipole_moment: 5.942
 S          -0.37425259899304   -1.27040212535931    0.58861496669508
O          -1.29020225782548   -1.69190390800042   -0.45266366629038
O          -0.76342643153969    0.00361672710675    1.18392414021931
O          -0.40433083276567   -2.34365223616840    1.73534688572651
O           1.01970653520399   -1.23360362092377    0.13945961716072
O           0.08897895979179    1.91091761599477   -2.13647649814083
H          -0.65448107950544    2.22701264755063   -2.65184299832725
O           0.12501625791958   -0.72890282946311   -2.46669931264507
H           0.12277943478160    0.93511350548890   -2.28841398016592
H           0.95132280206465   -1.09133933495986   -2.13538785602204
H          -0.54655702915809   -1.10394455848679   -1.86053144720813
O          -2.94181352769357   -1.57924273479168    1.69899315635136
H          -1.34469979519591   -2.34225866462994    1.99731856181009
H          -2.56303468934257   -0.69550566260053    1.79597581318300
H          -2.86207288588920   -1.77250070875222    0.75424503506068
O           0.21908295286990    2.33038289781375    0.48305033438140
H           0.10147131286330    2.31637816135125   -0.49616899806253
H          -0.31664070304738    1.57236825147000    0.81352908425724
H           1.49013917555989    1.65581982157652    0.62362131989274
N           2.32940103550059    0.91900427710433    0.66770488028370
H           1.83257480251665   -0.02385479152170    0.47892141797209
H           2.76451724940862    0.90426789421532    1.58369559512519
H           3.01652132239777    1.10222937586561   -0.05621605125785
