    23
        -45.37164083  Gyration_radius:  2.38026351404 Dipole_moment: 5.940
 S           0.04131746832157   -0.63752072695369    1.30135110915937
O           0.32387937001955    0.78315021280700    1.12573626992085
O           0.68391151963789   -1.43207976953336    0.25159930787482
O           0.73906027129814   -1.08518866512926    2.63562633475643
O          -1.37853617116513   -0.90378592632680    1.41929968683460
O          -1.28600726681739    0.74644043964472   -2.45191699296437
H          -2.13785317126653    1.17567290695208   -2.54319726638174
O          -0.96214725471035    0.73200061404196    3.54599251913037
H           0.27887693174339   -0.54224193519410    3.30367767136579
H          -0.54526207019789    1.29517271774305    2.88046141665788
H          -1.60463414714314    0.20693592594027    3.04826698880968
O           0.72378321225617    1.94124794408134   -1.19142010916772
H           1.63530748219301    0.83929587946226   -1.40414475926147
H          -0.06149334066191    1.64299307069069   -1.70831470100020
H           0.51809900452214    1.70273704674619   -0.25779458932653
O          -1.75391801334066   -1.51188502504932   -1.12532356212666
H          -1.81945010121033   -1.27990697606769   -0.17609282532100
H          -1.46631043668383   -0.10863987224451   -1.99065232263311
H          -0.98074842866994   -2.08173634308850   -1.16233279682813
N           2.17357110354725   -0.14027300451336   -1.40372063623051
H           2.14392517827661   -0.57490684513476   -2.32018419138180
H           1.60452367307105   -0.72776900215982   -0.69483905256331
H           3.13010519695549   -0.03971265673215   -1.08207748935446
