    23
        -45.37164084  Gyration_radius:  2.38048051364 Dipole_moment: 5.947
 S          -0.15240437390595    0.11641804186191    1.43779835971585
O           0.50236062155321   -1.12856032800906    1.02857907185784
O          -1.59693303534281    0.00508911154971    1.47989851275321
O           0.36358303940762    0.38737835923554    2.89664132761932
O           0.29149398053619    1.23427833847692    0.61186406158630
O          -0.95332740619302   -0.56281240178331   -2.64580638615706
H          -1.74208936362812   -0.20953111225582   -3.05967950011505
O           1.03559524358200    1.02900389414978   -1.89318093690515
H           1.84246711077505   -0.06341081836775   -1.39609888015820
H           0.27803684196638    0.54012356681340   -2.29297275955227
H           0.71569247008989    1.30974640441339   -1.00461606148824
O          -1.78575412869935   -1.79968412406703   -0.44189053127214
H          -1.91766901716500   -1.11315948886760    0.24399143130173
H          -1.26760918750236   -1.05136434210633   -1.84649053594032
H          -1.07838480623798   -2.34150458135848   -0.08141969692349
O          -1.22050049828484    2.48039319078603    2.52928942988480
H          -0.10021126739830    1.21356404482037    3.13170455790477
H          -0.68531603558718    2.60723574831071    1.73466255205427
H          -1.86212736916081    1.80009146197250    2.28067035923195
N           2.27175152103842   -0.92633321824211   -0.83047479108210
H           1.57828919074566   -1.04493638886578   -0.00788490917031
H           3.19803201417273   -0.71537181073477   -0.47541186808716
H           2.28502446525195   -1.76665353772084   -1.39917280705346
