    23
        -45.35323595  Gyration_radius:  2.35127510273 Dipole_moment: 7.313
 S          -0.04733582928988    2.23424262626536    0.09822803962618
O           0.56884569404953    1.70436122661429   -1.23600486873033
O          -1.20650608135167    1.44712772792033    0.41004766373570
O           1.07965385757097    1.85258847727800    1.11702923930637
O          -0.19858222756376    3.63686119989821   -0.00115244488308
O           0.05046536510445   -1.84246859956702    1.12427827242040
H          -0.02491436738406   -2.78680003714736    1.26717648648453
O          -1.94612505693192   -1.04827730799478   -0.23655091249643
H          -1.60711314220114   -1.02479509600694   -1.16152179254801
H          -0.79173932604768   -1.56896220861460    0.61179423534211
H          -1.92520732473238   -0.11800309570864    0.05383297742710
O           1.73697921541816   -0.49750082761652   -0.47594133848500
H           2.36517122166924   -0.08578012470299    0.12271389432023
H           1.13982774408170   -1.04575092394729    0.08076554756973
H           0.98755973809620    0.82522303323632   -1.02621401009441
O           0.23930021530951    0.17598963864844    2.89607096475272
H           0.06986268402987   -0.60669516949531    2.32960639118750
H           0.91900716366162   -0.06918490604171    3.52726925814809
H           0.67948584156787    1.28653547059954    1.83670017770961
N          -0.68461831450436   -0.70926750423672   -2.63361072092598
H          -0.61630554414311    0.30263086458492   -2.62345964259892
H          -1.04538031007714   -0.99110561232843   -3.53638462298054
H           0.25766880366644   -1.07096883163936   -2.54467279429136
