    23
        -45.35323602  Gyration_radius:  2.35118377007 Dipole_moment: 7.310
 S           0.45610365314016    1.57070186739819   -1.52480205605232
O           0.12282773977481    2.40211813803008   -0.23968166987767
O          -0.91368112381177    0.86557064319810   -1.78371390286005
O           0.74371827820484    2.41351318612412   -2.62348648788068
O           1.42240622738817    0.57246542998071   -1.16397176534713
O           0.33881081635601   -0.69009937356202    2.01640123296828
H           0.33160376258668   -1.31116927172652    2.74588139148207
O          -1.72692147632908    0.32708706921898    0.63293093287844
H          -1.01294386869423   -0.08808099005942    1.16677247614464
H          -1.79364485724746    1.23811068194302    0.92986288304356
H          -1.25748231853537    0.57915970995619   -0.89376802916412
O           1.58005471636310    1.68670486182102    1.77181639557437
H           1.38585994717253    2.18581502201608    2.56787875111021
H           1.24645384061844    0.77457511808824    1.90946504336563
H           0.77778377535235    2.15936519233101    0.47491695230015
O           1.21376693141900   -1.86473715695941   -0.06333078448983
H           0.39628553459145   -2.12955383622027   -0.54562101067421
H           1.52244660615902   -1.06594695764896   -0.52873093094025
H           0.73477999948315   -1.19732913737823    1.22114084007080
N          -1.15928521308182   -2.15653705431683   -1.38115852880652
H          -1.04088620451810   -1.41654281261926   -2.06454086090526
H          -1.90153789564945   -1.86658910553139   -0.75544391722359
H          -1.46651888074113   -2.98860122408357   -1.86881694472303
