    23
        -45.37164079  Gyration_radius:  2.38048728658 Dipole_moment: 5.951
 S          -0.17801990653945    1.41722945879157    0.25356100072111
O           0.83152008390690    1.54841507198087    1.28534717942667
O          -1.19793537899861    0.43334718780311    0.60094466694434
O          -0.90577642903782    2.80066005272874    0.09757360292870
O           0.39115389288814    1.13666511034258   -1.06682863126722
O           1.38477064084552   -2.49884515567428    0.24882981349824
H           1.68162658297327   -2.91356218933266    1.06008729928573
O          -1.41272116688239    2.25229271249882    2.64080565691070
H          -1.25975007783912    2.95228571976125    0.99455292122658
H          -1.74902685099949    1.42120156341327    2.28006962691970
H          -0.45415167873832    2.12659818817618    2.68000776913215
O           2.56419073056703   -0.11475781149098    0.18203418073945
H           2.04233641485812    0.48366713337832    0.75537495899736
H           1.85065248824563   -1.62835137422090    0.20833666118862
H           2.46875895126144    0.27475719631904   -0.69150603076840
O          -1.19495631326602   -2.06006837773293   -0.20737256794188
H          -0.28601665306104   -2.35425740217730    0.03765459362873
H          -1.31644201495600   -1.19909291720286    0.25602800672063
H          -0.95711148985311   -1.47076660484640   -1.50617422818537
N          -0.65720168378060   -0.82315355182088   -2.36629982740828
H           0.04238969301849   -1.28015288229182   -2.94198975141831
H          -0.22922592995115    0.04303474713142   -1.87852589622469
H          -1.45906391466760   -0.54714585552661   -2.92251099505075
