    23
        -45.35323590  Gyration_radius:  2.3511309181 Dipole_moment: 7.309
 S           0.09273849562160    0.74664602396396   -2.10506679230572
O           0.16891547070213    1.02633473218940   -3.48930511375462
O          -0.30554013481045    2.02136861839506   -1.28633062193672
O          -1.14789261400658   -0.16761550988016   -1.84951922032323
O           1.23503131575410    0.15476523326860   -1.46847595702708
O           0.56496751386050    0.35627786164810    2.05127844474045
H           0.70491394274903    0.14107341825056    2.97432872748867
O          -1.71989758668183    0.35428301735273    0.63886128501715
H          -1.92705430073410    1.28317977271147    0.50938697845181
H          -1.38675525997474   -0.05871950808092   -0.88861509242246
H          -0.91586845396781    0.32467944192730    1.20437339631819
O           1.36672428045980    2.49604836826188    0.62661489848057
H           0.42175024677839    2.21796791924161   -0.62987338416312
H           1.13498059604256    3.27411430380493    1.13793364781982
H           1.20216035296102    1.71310151967895    1.19414031309686
O           1.50989324819461   -1.51592833858086    0.61168859625474
H           0.72433437856467   -2.07368177650083    0.40471025135727
H           1.65020933563093   -0.98545826331685   -0.19384733899771
H           0.99668884282794   -0.40291736995334    1.51855178261144
N          -0.84748322431237   -2.67792518289565   -0.12705998060677
H          -1.59224414176952   -2.23166273868761    0.39506848241776
H          -1.03408508200195   -3.67236672747492   -0.15280780905546
H          -0.89648722188489   -2.32356482535531   -1.07603548346637
