    23
        -45.35323587  Gyration_radius:  2.35120479862 Dipole_moment: 7.305
 S           1.47887195314616    1.60988730803620   -0.46491147255042
O           0.66179909471309    2.20527044605497    0.73176953957355
O           1.89981963285794    0.28834367255705   -0.09511505629657
O           0.36407093592260    1.49041642827031   -1.55259665948324
O           2.45973486510162    2.52002325087694   -0.92287796095038
O          -0.93177108547353   -1.18206298690061    1.54666357326993
H          -1.44368566107818   -1.90485430780804    1.91196537526689
O          -1.70409312736003    0.75219792433470   -0.14976984386712
H          -1.47833197422207    0.01356395478546    0.45901504089990
H          -1.75533572434143    1.54422411924929    0.39123358541739
H          -0.44999459634925    1.15279791178222   -1.08812624859355
O           0.65322374577332    0.61788649104174    2.77193483793367
H           0.77441481385588    1.60547339430361    1.52293868327179
H           0.15563469313620    0.96823166185803    3.51370167776686
H           0.13926058718209   -0.13129090082275    2.40228718506583
O           0.69488224172143   -2.10635085865747   -0.17704965541113
H           0.23469958849284   -1.96488495541303   -1.03677874563639
H           1.34377665318928   -1.38083173408430   -0.12651711908469
H          -0.27002675411823   -1.60971694111087    0.89439291447690
N          -0.59784168563976   -1.27653142060879   -2.43421268227205
H          -1.49476241926752   -0.89443107636061   -2.15826348310854
H          -0.73509313981622   -1.82598931583092   -3.27323274301361
H           0.00074737257127   -0.49137210555102   -2.66645073266919
