    23
        -45.36514206  Gyration_radius:  2.28497084642 Dipole_moment: 7.082
 S          -1.46576130428003    1.02329623377133   -0.77564950816288
O          -0.13419042172199    1.67518461458491   -0.96400016324082
O          -1.94609369173560    1.45860341912313    0.65183683300881
O          -2.42569103378054    1.41722413902046   -1.74631705075254
O          -1.24629001718377   -0.42883414903622   -0.71032668941310
O           1.08066636363503   -1.09145090055304    1.87031353183782
H           1.43808040262489   -1.52715554860393    2.64511486383786
O          -1.54710601213345   -1.21399210423741    1.76960298700978
H          -2.05581261729127   -0.51686230980129    2.19040772344860
H          -1.56886866203686   -1.00189482834729    0.80718334522068
H           0.09417615346607   -1.21260962982932    1.91161456840408
O           0.48383134527628    1.60288723944373    1.60549669691676
H           0.58920040069891    1.79690041406825    0.65809360367150
H          -1.11190585261183    1.56382879491701    1.17297900236435
H           0.83348396667360    0.70583371004172    1.74577458320659
O           0.97182201451829   -1.85170337777610   -0.76177009908385
H           0.02982288372338   -1.57430477154284   -0.78025964567993
H           1.36315285067425   -0.72657557686240   -1.71052153396412
H           1.23831284030677   -1.68349318893788    0.16077790894699
N           1.37968427703402    0.17179076609005   -2.31918076867523
H           2.31425021689509    0.55289350520692   -2.42399437066372
H           0.71893362504165    0.87914542354302   -1.77071186263596
H           0.96630229220690   -0.01871186428303   -3.22646399560091
