    23
        -45.35323598  Gyration_radius:  2.35122275486 Dipole_moment: 7.311
 S          -0.46517311814248    2.18322548377567   -0.13615984178176
O          -1.15581552119432    1.21858776627930   -0.94422050797358
O           1.06748307762296    1.89100409692888   -0.21458377964522
O          -0.67663731716425    3.55532217132354   -0.40592322767529
O          -0.75450228887574    1.84572678857279    1.36587149476532
O          -0.65634028861374   -1.93032552719304    0.70814741761557
H          -0.66606721384003   -2.88615898124122    0.77310631756731
O          -2.42595290332075   -0.11114298386366    1.60710308630792
H          -2.61133272838488   -0.33085848531985    2.52246091184487
H          -1.47737235868202    1.15683219317331    1.40387286903546
H          -1.88955243553930   -0.84236414737969    1.23321120153168
O           1.31274840809267   -0.20618180485342    1.31299300180752
H           1.02413329197604    0.21743510117089    2.12531335623909
H           0.63596722282427   -0.88658987281836    1.09821103104064
H           1.22426533213893    1.05779574698589    0.30831069061196
O          -0.54565174181179   -1.26743160485107   -1.74506663148464
H          -0.65330063452498   -1.71799129753778   -0.29261449136902
H          -0.93672779697256   -0.38018579807470   -1.64557472501003
H           0.41257206775303   -1.09760847302040   -1.90019800605774
N           2.07333594612673   -0.50183831624011   -1.83149741422704
H           1.93406297906561    0.50279581216834   -1.83383564793314
H           2.73174594782353   -0.72963863879199   -2.56581014615989
H           2.49811208363719   -0.74040921919772   -0.94311695904757
