    23
        -45.35323584  Gyration_radius:  2.35116867356 Dipole_moment: 7.307
 S          -0.78716918276138    1.98199323200028   -0.66992315342057
O           0.49785734524579    1.55477914301565   -1.44860671262322
O          -1.64607666231444    0.83885335573650   -0.54371483910744
O          -0.18727676882401    2.28963095642520    0.74418394526441
O          -1.31202524087510    3.14905172512135   -1.27216335113362
O           0.11315596123521   -1.42801731695468    1.61402385862574
H           0.28467869534862   -2.27552712469074    2.02661687834567
O          -1.17213456963921    0.73982263369877    2.56346654838297
H          -0.80893600422373   -0.12181334009933    2.26726450785712
H          -0.81438387286000    0.91672793179052    3.43598165892924
H          -0.67171347698515    1.73789818573951    1.42195622027699
O           1.82206592236052    0.21711610322673    0.35361114795991
H           1.94701290058915    0.95040006882910    0.96132701051213
H           1.24360190703364   -0.43083822840417    0.81484427476293
H           1.02917165363584    0.98472308710133   -0.82801012377610
O          -1.18421749102464   -1.80303655005815   -0.54164566590639
H          -1.59217719260755   -0.91908118064634   -0.58886609374929
H          -0.48994080453872   -1.79096676318867   -1.24073968775252
H          -0.44264363894236   -1.63057045159672    0.77951621689552
N           0.84569561356775   -1.35873451101466   -2.31266961992577
H           0.57597571979890   -0.42916333019769   -2.61569800776090
H           1.04482743107690   -1.91225483222019   -3.13645223668520
H           1.70465177570424   -1.26099278362313   -1.78430276597559
