    23
        -45.35323584  Gyration_radius:  2.35128677315 Dipole_moment: 7.305
 S          -1.06405650629423    1.90880046267742   -0.46979743960658
O          -0.33922423371222    1.73610311757995    0.75705529666610
O          -0.04715706026798    1.76165153765681   -1.65233421300493
O          -1.96368675932930    0.65211445290014   -0.69680056605382
O          -1.86211322116992    3.06702520731586   -0.61720222672287
O           1.90948959338961   -0.99445278794255    0.15124117716935
H           2.52210958030274   -1.68614630931633    0.40459639478020
O           0.42827424211355   -0.42936518295919    2.14088398932824
H           1.36961092066542   -0.77718073544191    0.99230590001544
H           0.19630239070750    0.47504655854702    1.86123124278745
H          -0.39104877024551   -0.95324556583419    1.98245537828677
O          -0.23302556390940   -1.13904776315967   -1.46272187092921
H          -1.35100122027833   -0.09506063345296   -0.93937042706038
H           0.03757773082520   -0.68957900594916   -2.26730621332423
H           0.55387738095263   -1.15154504839405   -0.87297635217190
O           2.37821767478517    1.47997839014795   -0.80337607903037
H           3.01349810875988    1.38832033440623   -1.51651218700773
H           0.87868998350862    1.75909650412834   -1.27664475698982
H           2.30392989762459    0.60661874859788   -0.36320616378414
N          -1.85813492076551   -1.66330626806011    1.30108411891582
H          -2.37223901927524   -0.83872820162714    1.01045297437205
H          -2.47053512601346   -2.22943662538551    1.87475117880106
H          -1.63935511237166   -2.18766119642596    0.46219084456825
