    23
        -45.35323594  Gyration_radius:  2.35120690829 Dipole_moment: 7.310
 S          -1.23031653891528    1.69381465677017   -0.78394969182350
O          -0.23058254868280    1.89801744312757    0.22563551386868
O          -0.61371156288507    0.82381161185775   -1.92538094477242
O          -2.30107964958111    0.70722846986635   -0.20583814523161
O          -1.83770398681976    2.83219118867734   -1.36301301224774
O           0.34887900786536   -1.34307452456154    1.65232374283670
H           0.82860162936419   -1.98801066113572    2.17371311297023
O          -1.82855661023978    0.11808606565529    2.26635924817537
H          -2.47550818770715   -0.48723611937112    2.63457442066338
H          -0.98807030665973   -0.37736075824070    2.16564173458634
H          -2.13294115727795    0.59315666980801    0.77250313816084
O           1.94573377217337    0.50882258775142    0.95127220982272
H           1.27201193425752    1.20049868084073    0.81825464299658
H           1.02175561863866   -0.60452096478301    1.43294636512441
H           2.21877985426281    0.25298947395382    0.03972129890447
O          -0.58287391544012   -1.55314925500292   -0.85800276065668
H          -1.53433016675401   -1.63884043490475   -0.75832968278490
H          -0.51948638694671   -0.09808061331697   -1.55971724881572
H          -0.20869601029075   -1.53187235429572    0.05129427433893
N           2.25691263714420   -0.20168051343446   -1.66655359553170
H           1.66268096734880    0.50650501998117   -2.08366294241989
H           1.79681003741773   -1.09382489472030   -1.80418069727995
H           3.13169154972062   -0.21747077453366   -2.17561097090115
