    23
        -45.35323610  Gyration_radius:  2.35136668617 Dipole_moment: 7.310
 S           0.76122413823993    1.16213197524452   -1.75270814251397
O           1.25321769141262    1.71804733246687   -2.95645484686400
O          -0.59430468651662    0.44603672936612   -2.05283828911353
O           1.60620885605555    0.25521805189211   -1.02886867401714
O           0.29258245062390    2.27796568765172   -0.75813068376494
O           0.00413350693197   -0.20899355318693    2.14890840098792
H          -0.14304376235680   -0.64267544890926    2.99044065526598
O          -1.77745979415390    0.50249827306209    0.26843370002401
H          -1.17341085349081    0.20782834412265    0.98628542758031
H          -1.83417973994321    1.45893787051309    0.33633165542651
H          -1.07866064747084    0.38115346095312   -1.18483148479767
O           1.39794920685738    2.01962824894051    1.56439177467793
H           1.11860928404969    2.69422848023550    2.18680787819210
H           0.99794078444422    1.17160677636304    1.85243989363635
H           0.82147091611337    2.19442442978990    0.08548373730679
O           1.10179960413221   -1.85415356093581    0.54893584524166
H           1.51910882669325   -1.19216218396838   -0.03209437899254
H           0.48131934464779   -0.89580490070514    1.55997845130379
H           0.34920150819958   -2.20646757286783    0.01941138874592
N          -1.06832775041611   -2.39385179435020   -1.01751965781517
H          -0.81097641671478   -1.83664821407961   -1.82492686272746
H          -1.87488234708664   -1.94932619072172   -0.59517887749522
H          -1.34952011025702   -3.30962224088015   -1.34429691030466
