    23
        -45.35323607  Gyration_radius:  2.35136484811 Dipole_moment: 7.309
 S          -0.85861278370569    1.78894881343482   -1.03110129159803
O          -1.32221573896273    1.97263795315572    0.45393222008860
O          -1.19928308445362    0.45455333578743   -1.43576623698288
O          -1.28967538217347    2.86415602816625   -1.84237605817467
O           0.69250417779611    1.87849094404781   -0.86914638312207
O          -0.37156594837066   -1.62890689551018    1.36782254916833
H          -0.20275495521653   -2.46288092468557    1.80817938209548
O          -2.59049014027267   -0.10362401269875    1.32761227570650
H          -1.86561735906596   -0.76437611244482    1.31856117330383
H          -2.87945182808794   -0.00780296077115    2.23748088404774
H          -1.89088497378737    1.19145096151396    0.70831188440647
O           1.08915450445014    0.62551396054435    1.38117985499731
H           0.59137170826523    1.23482676753677    1.93214204032055
H           0.60537834854933   -0.23032074985756    1.40534903306926
H           0.92193312676179    1.36360412211129   -0.04783811942598
O           0.01649112555102   -1.91638067671430   -1.12982591312597
H          -0.24263353709456   -1.80876558023256    0.36921146566520
H          -0.55344553699114   -1.18187030414962   -1.42256298626312
H           0.93431036090441   -1.58494560046352   -1.26642007310300
N           2.40908869120943   -0.61411388497747   -1.31537095659608
H           2.71671745165517   -0.39335098484255   -0.37561281092673
H           2.07607111205703    0.24973850307219   -1.72951106447398
H           3.21361066099167   -0.92658270201933   -1.84425086907660
