    23
        -45.35323597  Gyration_radius:  2.35125905119 Dipole_moment: 7.313
 S           0.73587644942699    1.80593288213526    1.09466523868424
O           0.41790232689495    2.10285250766543   -0.40577023252644
O           2.01984924965060    0.91942894267951    0.95543587482362
O           1.02209404894127    3.02877868844395    1.74514209558768
O          -0.31106058851728    0.98195656406035    1.62892412198894
O          -0.01343823504828   -2.15613610393200   -0.09079883690318
H          -0.31177836836801   -3.02220909916846   -0.37158224079365
O           1.01621978302509   -0.15628799345698   -1.55903743820745
H           1.95042650635687   -0.14661775052943   -1.33612112668873
H           0.62334387744879   -0.91885015267454   -1.07817352085449
H           0.57245962322415    1.25305906797609   -0.90184806142849
O          -2.03750851493752   -0.73519397444270    0.50454853068875
H          -0.85717093158290   -1.64224338899757    0.17469026472200
H          -1.57788683845994   -0.12108011805597    1.10594079701739
H          -2.20162008133949   -0.20507125472765   -0.30971912844519
O           1.65488396865219   -1.45739428274214    1.90367583432773
H           0.98822547827081   -1.79455792623122    1.26798466085007
H           2.43334429930287   -2.01252480709663    1.82404449742290
H           1.86001355797998    0.05199454044921    1.42505129057434
N          -2.06106158111085    0.86884256669076   -1.70462751638916
H          -1.67585481592783    1.70742198428549   -1.28386482787619
H          -2.88094765690880    1.13215512754815   -2.23650353742178
H          -1.36631153699193    0.51574398011823   -2.35205673915010
