    23
        -45.35323593  Gyration_radius:  2.35116806676 Dipole_moment: 7.308
 S          -1.98760891635189   -0.35575652003119   -0.95934599381649
O          -3.32396688683562   -0.50705639974179   -1.39689825948241
O          -1.72946186206414    1.15579112836184   -0.66133795642359
O          -1.55299057125810   -1.12504601512003    0.17190480439644
O          -0.97303231267049   -0.60449951705005   -2.12678792557011
O           2.01342768266639   -0.72850967983408    0.27015215553818
H           2.88129416772467   -0.78363927303106    0.67225667702662
O           0.25182979536241   -0.67625046074144    2.10449088796788
H          -0.48710905815398   -1.01671759240731    1.56777910297421
H           1.34466588027053   -0.75228264567533    1.04386435515777
H           0.05398218275769    0.28268349004688    2.21487345746863
O           0.80724091581904   -2.36815218987868   -1.49297645393504
H          -0.37319779463625   -1.36160544737957   -1.87091069056219
H           1.43687424226909   -2.53101453024357   -2.19837185966734
H           1.28123181715454   -1.88445781192010   -0.78340604058608
O           0.85063983536855    1.35070357224759   -0.97087205627531
H           0.86508724772807    1.11700111576538   -1.90242369378546
H          -0.74332196563379    1.28926261844964   -0.70712800244970
H           1.32350241540025    0.63081360575377   -0.49615011539233
N          -0.39144195066030    1.97350443359007    1.96472017677171
H          -0.52918795554417    2.59171222308410    2.75426715153727
H          -1.27571604070659    1.88503210906525    1.47604706108691
H           0.25725915199637    2.41848379669301    1.32625322801100
