    23
        -45.35323593  Gyration_radius:  2.35133315877 Dipole_moment: 7.305
 S          -1.19891343135894   -1.37511678326557    1.29221508361031
O          -2.11635596473625   -2.13242901997492    2.05698829250667
O           0.20110599420725   -2.07452209882967    1.22328437478328
O          -1.63250928689831   -1.43466595164806   -0.20736555278127
O          -0.98661304579609   -0.00188426689693    1.65212130445217
O           1.87271652549333    1.04507249574410   -0.24946219963018
H           2.47793914009987    1.68708945345457   -0.62289785979993
O          -0.34955596979077    2.18457620582438    0.23553883958412
H          -0.65161022904541    1.56456786003614    0.92428101317776
H           1.01526969092804    1.56012194554097   -0.03612054736297
H          -0.90328787610299    1.96767141830102   -0.55007928227636
O           0.61480856940993   -1.00078769875103   -1.45313155013091
H           1.09288285513639   -0.23040055668849   -1.07236174305952
H           1.06718692297540   -1.78597927326908   -1.13468423530985
H          -0.82268559069212   -1.21795857004835   -0.74544146854256
O           2.10474055324358   -0.48550803724166    1.95434206779810
H           0.88418752297408   -1.45633844145206    1.60990762573317
H           2.96961192038975   -0.89922293679959    1.91730809564615
H           2.06438653505198    0.17444906336741    1.22986334598057
N          -1.79168937954507    1.14875374287835   -1.83869386186101
H          -2.32357960128861    0.45901659188782   -1.31897667344925
H          -1.15347975608821    0.64021885181336   -2.43924882000717
H          -2.43455610857134    1.66327600601364   -2.42738625905723
