    23
        -45.35323593  Gyration_radius:  2.3512919994 Dipole_moment: 7.308
 S          -1.43720724213088    0.70764229415992   -1.55930575679542
O          -0.40035674457534    1.56064521733610   -1.05165096483168
O          -2.36785342172876    0.31880933443045   -0.36067839885343
O          -2.18808454668428    1.15683367222621   -2.67038296757074
O          -0.81207902986099   -0.68047929801859   -1.90934294028098
O           0.58156184713363    0.10079116627586    2.07590702699889
H           1.15349663550385   -0.02054812550749    2.83492199702052
O          -1.68516316914169    1.53222878385968    1.81748328246537
H          -2.24582054723319    1.30376462099336    2.56179574912943
H          -0.80855691793916    1.12100552877117    1.97395492324760
H          -2.12807987501154    0.88751115500586    0.42505940889181
O           1.94260341160861    1.07383769652439    0.15944476182899
H           1.16388365366352    0.52967206536422    1.35271534584834
H           2.18213125771750    0.28738948302040   -0.38369172461111
H           1.19726609948466    1.48133206469930   -0.31846281481136
O          -0.48044385458348   -1.74964458710301    0.44384852121483
H          -0.60456469445340   -1.12452948246990   -1.04207648279921
H          -0.05397894249371   -1.11930914774913    1.06673193316843
H          -1.41078359749669   -1.77838461026936    0.68086375250839
N           2.15697923265620   -1.18213518647149   -1.36364949973331
H           1.47046553911187   -0.94775479540188   -2.07249655691889
H           1.77943038515835   -1.95570877226487   -0.82922601907116
H           2.99515452129502   -1.50296908740837   -1.83176256604674
