    23
        -45.36514206  Gyration_radius:  2.28503837097 Dipole_moment: 7.085
 S          -0.34151054055293    1.89858574451182    0.27705781875642
O           0.74392314920108    1.22031685960483   -0.44588660513715
O          -0.00615552851528    1.75910235332187    1.80220079865644
O          -0.48728322038586    3.27127291414984   -0.05950072673295
O          -1.59047353067806    1.10456951472220    0.06943631734519
O           0.93327374889662   -2.12125603295103    0.69858805240052
H           1.35162275466024   -2.92076633855127    1.02054607721995
O          -1.03158741340747   -0.63966709849352    1.97581325731405
H          -1.53860574142003   -0.21641849030543    1.26159283977145
H          -0.43613202969704   -1.28126879688511    1.55107174810399
H          -0.34246085423597    0.86207029735044    2.04850665426457
O           2.30801060280695    0.04357477506271    1.29374558953467
H           1.84495681684420    0.58422124302602    0.61182845011247
H           2.12952143817620    0.48631245787460    2.12682946336458
H           1.53496389582215   -1.37015353150682    0.95021047773554
O           0.77342999477582   -1.03283526100155   -1.81277350366861
H           0.79534158587355   -1.63333027044812   -1.04509607345228
H          -0.62922770748593   -0.54483121891426   -2.14924130875390
H           1.01179037863274   -0.16180105063865   -1.42650840314754
N          -1.55524591060859    0.01758730709723   -2.21212713020298
H          -1.62557599439169    0.52887912921379   -1.22657903838784
H          -2.36118755532168   -0.57779181910624   -2.37208492980981
H          -1.48138834898918    0.72362729286677   -2.93762981528674
