    23
        -45.35323582  Gyration_radius:  2.35114983434 Dipole_moment: 7.307
 S          -0.62043949312480    1.77107291102227   -1.21419737419211
O           0.39927336966928    0.85779613276021   -1.96667158446620
O          -1.08880232379841    2.75866482155171   -2.11171534751903
O          -1.58718982805052    0.93489538599766   -0.56103299350527
O           0.29952221333638    2.39365020527507   -0.10949328649572
O           0.24447848940143   -0.81266206562879    1.98397899585614
H           0.37680761520873   -1.49489483972605    2.64350635277904
O          -0.49280286632383    1.76199115152400    2.26851508963342
H          -0.32581999604132    0.79561752502480    2.25184824936405
H           0.06106525819924    2.13650330801539    2.95664968614475
H          -0.10572700551069    2.20625908337989    0.78443697708547
O           1.86778474848800   -0.05908264446193   -0.01906415320421
H           1.31258448116352   -0.38690421307478    0.72358018775065
H           0.96246101903415    0.42572962132282   -1.26768371810317
H           2.21966383923245    0.79022046160139    0.25927006175341
O          -1.51492799640971   -1.59640273834549    0.32232392450082
H          -0.98775879703840   -1.95672260905376   -0.42812182557227
H          -0.49649667810776   -1.15802628262180    1.36912773363301
H          -1.79415538431471   -0.71250591858208    0.02101711949305
N           0.14144872696907   -2.18350166751444   -1.76720850922376
H           1.09702360485953   -2.09785971330706   -1.44148504293321
H          -0.05083655965537   -1.36953170156819   -2.34090595738177
H           0.08284355280429   -3.00430618359017   -2.35667459539793
