    23
        -45.35323594  Gyration_radius:  2.35120205614 Dipole_moment: 7.311
 S           2.12321704755902    0.60149016405152   -0.36199610915274
O           1.96107513349425    0.76411927401848    1.18751657775494
O           1.10172332493796    1.66434874707093   -0.87911329768936
O           3.41865113800149    0.97779176155998   -0.78669026223639
O           1.64435686679791   -0.70369826110396   -0.71924236808742
O          -1.34815284740115   -1.17104463432751    1.21264149268416
H          -2.17123928374182   -1.60298683772537    1.44475176295858
O          -0.85057122015819    1.44101812954512    0.83257978046488
H           0.29720782196321    1.59212027862175   -0.29617025504013
H          -1.09756646640333    0.49945458221634    0.97256840145721
H          -0.34753098231534    1.70811057307030    1.60600928397642
O           1.10469445722318   -1.40757828395303    2.29756162672339
H           0.99957288449149   -1.32342533751104    3.24749991625862
H           0.20640166196471   -1.45745972357625    1.90670258863860
H           1.72751808270796   -0.12554252354056    1.57791623724763
O          -0.80475928350310   -1.67531778137333   -1.22050761092869
H          -1.13672809839024   -0.88427741276785   -1.70542204108379
H           0.15794491771375   -1.53589431781202   -1.15829818726680
H          -1.15577667765967   -1.43771966380256    0.24389674236759
N          -1.45512462197871    0.75269346680303   -2.28555206549202
H          -1.97383145621108    0.90254292348044   -3.14172646737686
H          -0.51619178206380    1.11220547545478   -2.41897539943192
H          -1.88489062702916    1.30904939160413   -1.55595032674862
