    23
        -45.35323594  Gyration_radius:  2.35128528444 Dipole_moment: 7.310
 S          -0.24830319240508    1.96818514991232   -1.03168159751094
O          -0.88410830464230    2.21607390476728    0.37838805151499
O           1.04844658652657    1.38574562409591   -0.83258304917288
O          -1.20465862663505    0.87046977262607   -1.59775955217769
O          -0.34632720582865    3.11721550914538   -1.85043266766517
O           0.61132718113339   -1.00997257141341    1.80730042180623
H           0.86755903104217   -1.75338256166105    2.35465139051455
O           0.75755253976095    1.63548463107304    2.28889769457455
H           0.38154288202385    1.78166022588379    3.15942098769047
H           0.83196141813247    0.66577100944389    2.16142670449684
H          -0.18051594936780    2.07530648135006    1.07377043842144
O           1.87417709652265   -1.12885492402770   -0.39763416743869
H           1.23599689128019   -1.55920234024194   -1.01285698852791
H           1.82041686278371   -0.18043723795393   -0.61588869727083
H           1.17432252344986   -1.08176722298805    0.95629241978469
O          -1.70157845010629   -0.57657316231430    0.51180787151973
H          -1.39137471364297    0.24254978181342   -0.84740038387307
H          -0.87541487057063   -0.79691298697742    0.99763108045506
H          -2.13726390176933    0.11488062254048    1.01640301264594
N          -0.17494122969089   -1.98307459061478   -1.98675564516202
H          -0.37989647747330   -1.10397681788211   -2.44918419191636
H          -0.96512562522834   -2.19522585426960   -1.38916265022433
H          -0.11379447529352   -2.70396244230901   -2.69465048249996
