    23
        -45.35323598  Gyration_radius:  2.35124357598 Dipole_moment: 7.311
 S          -1.70711443271922   -0.39410192263080   -1.38916684113795
O          -2.74441811572887   -0.83816692873368   -2.24176131203389
O          -0.35059421171541   -0.66128777821908   -1.77504529584290
O          -1.82837877273425    1.13945013613623   -1.09340257201833
O          -1.94495100573977   -0.98885790174259    0.03557169055590
O           1.66941140864961    1.28635141603815    0.46436770922892
H           2.48666553362228    1.54489301099009    0.89235059032179
O           1.89391674406559   -1.10424828801678   -0.37544297259990
H           1.47374200379269   -1.64433590440298    0.33358253591978
H           1.21539277130745   -1.04825558514062   -1.07294617740505
H           1.82624543844105    0.33933433916008    0.11088117481878
O          -0.71478663091322    0.72419774556896    1.56633980790343
H          -1.44708358228011   -0.40681187715544    0.67254500647459
H           0.18370379705095    0.92963007233485    1.22321150440512
H          -1.26771772169933    1.47905931355374    1.34940267955824
O           0.36929236681307    2.39583252114273   -1.61665556912289
H          -0.99350896004721    1.59069541869294   -1.40615633037183
H           0.31071699007949    3.33693126068165   -1.43936166552128
H           0.95582730831340    2.00523283581439   -0.93439164590378
N           0.36448029824543   -2.33824586889955    1.51987458708633
H           0.12273841113402   -1.64841582537634    2.22145798540667
H           0.59277400141843   -3.20256801091020    1.99461393157994
H          -0.46635361934849   -2.49631217888478    0.96013114870298
