    23
        -45.36514202  Gyration_radius:  2.28496722618 Dipole_moment: 7.087
 S          -1.31408029141889    1.10146693215151   -0.92599049797882
O          -2.46155749999544    0.11434977756472   -0.51778055083960
O          -0.43771742283387    0.32976749519992   -1.85857081852155
O          -1.87094228096532    2.26819598865648   -1.51545523760592
O          -0.54251853054516    1.36319320102963    0.29771914426239
O           0.59131356114403   -1.72839272355113    1.58778291412457
H           0.75636846420535   -2.40036872230698    2.25042533644691
O          -1.44608763429794   -0.18154357467187    2.20927920741646
H          -2.32446962048259   -0.44242002497358    1.92247830960720
H          -0.17314290110471   -1.18713983349125    1.92283860886228
H          -1.16812002305157    0.52129922854385    1.57644182004455
O           1.88338596561425    0.61961428552159    1.00914297455445
H           1.65789648897777   -0.29855152508137    1.24689280893180
H           2.10118585382520    0.81361813825810   -0.48527356451420
H           1.00858778315995    1.06426094368821    0.96563115194679
O          -0.93492150065568   -1.99911816728498   -0.71019004292172
H          -2.03844004628986   -0.77956997849919   -0.53966160584757
H          -0.55249060667496   -1.37206244840066   -1.34801331792772
H          -0.32511582466892   -2.03148956927863    0.04730959147131
N           1.97528091879791    1.01336160578026   -1.54462839854036
H           2.61137856881474    0.47161584330583   -2.12042406658788
H           2.08679349427453    2.00618906710259   -1.72403681805895
H           0.91741308416992    0.73372408073780   -1.74591693832595
