    23
        -45.35323581  Gyration_radius:  2.35115271895 Dipole_moment: 7.309
 S          -1.19117140937211   -0.57617681198926   -1.80231362107729
O          -0.71163518147778   -1.56294681062690   -0.87669166887639
O          -0.01728413990911    0.39618309164428   -2.14450270997671
O          -1.77460497185099   -1.02126994042938   -3.01127626015149
O          -2.15352547334809    0.38389217657619   -1.02391357393039
O          -0.00271004503905    0.24895645108535    2.14371431620018
H           0.37806588940670    0.36590534548787    3.01506788305224
O           1.28524352896976   -1.56700073720394    0.91364357471026
H           0.52145519458245   -0.51493335181956    1.70971142607000
H           0.57465699863755   -1.81844375585634    0.29559254052065
H           1.92771632781676   -1.06661151631430    0.35876907277021
O           0.13520851539374    1.86498435517002    0.00272969941520
H           0.13096225490419    1.31127530175159    0.81549013593177
H           0.13323512303869    0.95584440161491   -1.33430116593344
H          -0.74140389080938    2.25115273866183   -0.06788056577536
O          -2.51549237376326   -0.38802937895266    1.41621317274706
H          -3.10379698276560    0.19055736382506    1.90575623075157
H          -2.33934591904590   -0.01178449328890   -0.12534230794895
H          -1.61125976507989   -0.25611851353597    1.77286433068086
N           2.69902317733297    0.03041784424488   -0.78999696171857
H           2.16099802458144   -0.13946714540429   -1.63280526795825
H           3.68012510371638   -0.07039196132497   -1.01760603556387
H           2.53553998408408    0.99400534668412   -0.52292225393972
