    23
        -45.35323591  Gyration_radius:  2.35125509544 Dipole_moment: 7.307
 S           0.59072879909455    1.81589736916301   -1.16203107295137
O           1.11833762222079    2.85375070706830   -1.96491258057243
O           1.38442232635390    1.33519827276470   -0.06687938231626
O          -0.82316348479288    2.19049069179489   -0.60123666540402
O           0.23148401287211    0.60703898422633   -2.08386360734781
O          -0.81550371889828   -0.75416478833243    1.85065612156991
H          -1.02700316784476   -1.41236130320468    2.51396650677973
O          -1.61749066709317   -0.61023289576218   -0.70903791455445
H          -1.34889711901966   -0.72367539367007    0.23016595651513
H          -2.25405902843313    0.10886458443845   -0.72480670367793
H          -0.43753562896812    0.06090906511336   -1.58729322457389
O          -0.93556647836986    1.93370891870616    1.96864717228791
H          -0.83076454912988    0.96167108504492    2.04754222109305
H          -0.78369812291670    2.17338610652431    0.39696512384718
H          -1.79635234070256    2.15914806662220    2.32749797365631
O           1.60288950625769   -1.05865951545372    1.12230598723092
H           0.17213910115535   -0.89292223634735    1.62396048119447
H           1.53626175629328   -1.59405533385161    0.29779359941917
H           1.74673957833639   -0.14695295474408    0.80906332815806
N           1.14644137565912   -2.20827755249750   -1.31183005970207
H           0.15374610779344   -2.39684148625530   -1.38671216187278
H           1.64661059303571   -3.00052555031380   -1.69493731207794
H           1.34023352710535   -1.40139483102970   -1.89502379670566
