    23
        -45.36514203  Gyration_radius:  2.28488936344 Dipole_moment: 7.087
 S           0.22320861566356    1.68894661775664   -0.94598480541503
O           0.90640289422985    2.75524147583652   -1.59025064790355
O           0.92927224286602    1.15190555323253    0.22634589181033
O          -1.16977174056634    2.18793582105399   -0.42795303362950
O          -0.07776823405992    0.54411369659893   -1.85813015962010
O          -1.07401444901478   -1.37710401628372    1.67503051957523
H          -1.52030758569837   -1.85646028669471    2.37427033709071
O          -2.24751309565301   -0.19115895644041   -0.53848814643055
H          -1.73201929706210    1.37423391162480   -0.40674582901045
H          -1.56483137909964   -0.20849269202817   -1.23123916660742
H          -1.91256902901180   -0.73532232855035    0.19528583575538
O          -0.70687753302116    1.16060598718063    2.27069304728313
H          -1.39244144526234    1.79068830152471    2.03646090071762
H          -0.96232508239328   -0.44444437594935    2.00262424767855
H          -0.01051095037572    1.27182772862408    1.58186718472793
O           1.55294972792069   -1.32044563515406    0.89216925076583
H           0.66616549996269   -1.58467830507985    1.19913002528880
H           1.71322980603835   -1.41163716914741   -0.61932377193880
H           1.49711730670560   -0.34057189168728    0.85314432629013
N           1.74086397916592   -1.20245243410358   -1.68393960665284
H           0.95583762429981   -0.42674273423658   -1.82494165980012
H           1.54641783996511   -2.02423482972329   -2.24654114272643
H           2.63948427440031   -0.80175344835467   -1.93348358724831
