    23
        -45.35323595  Gyration_radius:  2.35116762032 Dipole_moment: 7.309
 S           0.07690481997429    1.22987805180526   -1.86503242073437
O           0.12746527853872    1.83240257609109   -3.14353529188518
O          -0.19712230421168    2.28999393447691   -0.74471429600453
O          -1.21949731201790    0.36306486611953   -1.77419275430167
O           1.19234959735095    0.42837454968950   -1.44813569614086
O           0.66089174871172   -0.19198765896177    2.04507878935365
H           0.81597031728817   -0.63416818024497    2.88075401364189
O          -1.66458642774016    0.29735626017055    0.79273913649772
H          -1.80585784531811    1.24115626173695    0.90160403482743
H          -1.41627955190018    0.24891517145913   -0.80437086175592
H          -0.84616229217353    0.07908523476154    1.29244674800554
O           1.56956399699591    2.17537506894535    1.13864174077569
H           1.36717259930524    1.28956101597275    1.50813077407751
H           0.56453813773398    2.27347588813864   -0.09808906113250
H           1.41374640890696    2.81801649319688    1.83382132499004
O           1.41146889542975   -1.71427812362733    0.15024130486768
H           0.57959678561008   -2.15264715800587   -0.14426537393889
H           1.56367880126892   -1.01341156182637   -0.50974368914679
H           1.01556254208680   -0.82477251253419    1.32382834910910
N          -1.05063388304420   -2.50560600070143   -0.72503961302894
H          -1.74099389346261   -2.15120396689018   -0.07365567267002
H          -1.31353071921393   -3.44955292795279   -0.97887570349912
H          -1.10424568012409   -1.92902730181788   -1.55763580192508
