    23
        -45.35323586  Gyration_radius:  2.35129556055 Dipole_moment: 7.308
 S           1.59540067343275    0.28156897621575   -1.54115625761331
O           0.22789839959729   -0.14579629623544   -2.16400823063451
O           2.57857031487068    0.26377168949182   -2.55756676342300
O           1.26969189816863    1.74523868715311   -1.08777626340795
O           1.82488935472031   -0.50300236433070   -0.36125736392807
O          -0.70344619850454    0.53727327113856    1.96861492446976
H          -1.23363914819201    0.46194818505566    2.76305049104384
O          -1.49150836677591    0.97849845178651   -0.56102132707103
H          -1.23228766683179    1.88532306853840   -0.74261925889969
H          -0.48171355233533    0.20764198886640   -1.56069656703875
H          -1.26663870211867    0.80768774339330    0.38095540938592
O           1.48358060465626    2.02769739447036    1.47281257353666
H           0.74765329138968    1.45177873111168    1.77096583374658
H           1.46440968681948    1.82625734584767   -0.11106932831646
H           1.28630773649232    2.91954812722644    1.76647121260871
O           0.18065268512546   -1.76374764262932    1.34129537352635
H          -0.45494025457276   -2.08361095053202    0.65957089816019
H           0.95240989141878   -1.45858986764599    0.83002681100622
H          -0.34109478647614   -0.40148640586453    1.78417294058897
N          -1.47637470480385   -2.26775756182611   -0.76884376870421
H          -0.81811408577485   -2.09074006444447   -1.51979450310762
H          -2.17192201036932   -1.53188795983194   -0.80445184075434
H          -1.93978506992861   -3.14761452696000   -0.95767498517953
