    23
        -45.35323597  Gyration_radius:  2.35136138303 Dipole_moment: 7.313
 S           0.53351029088968    0.89112712639351   -1.98082237592647
O           0.20289196337434    2.14372757457870   -1.10016511025129
O          -0.85193132870548    0.16955883659801   -2.00012369305258
O           0.86512559413272    1.26458702376947   -3.30392753154307
O           1.46325804789277    0.07517822675563   -1.25266709821681
O           0.27874599265029    0.09095536165440    2.13888320028292
H           0.23749492758824   -0.22044819855433    3.04399794756037
O          -1.72739033945569    0.57567184697113    0.42026346054108
H          -1.22101406580228    0.23820659048979   -1.07733957012983
H          -1.03695804865444    0.36985470493071    1.08969153726922
H          -1.77167676234157    1.53327122479674    0.36065791183344
O           1.59868750944616    2.18344984340880    1.07547045324708
H           1.40704622098367    2.94466869798252    1.62712327598313
H           1.23417382383101    1.39376613135877    1.52882363008098
H           0.83596668369436    2.16499954258059   -0.32745752737375
O           1.15540922070264   -1.78178547270294    0.65758343138301
H           1.49706676610218   -1.21600483190341   -0.05885117893345
H           0.67353866090349   -0.68069776619678    1.59547455584745
H           0.33975403913012   -2.18797588523574    0.28249861241630
N          -1.19983051113804   -2.48855801460360   -0.52846430399728
H          -1.94538751631728   -1.97588840653650   -0.07263411647556
H          -1.52039384261132   -3.43549262288723   -0.68669886437634
H          -1.04808730629334   -2.05217156364658   -1.43131666617022
