    23
        -45.35323593  Gyration_radius:  2.35140241069 Dipole_moment: 7.319
 S          -0.95087201047845    0.65878286711544   -1.91509436567814
O           0.60790636160849    0.75618706670573   -1.95258062353785
O          -1.44987480679667    0.92347133493125   -3.21167258531004
O          -1.31607656857130   -0.57914154308507   -1.28695700944016
O          -1.29654833712899    1.82035881361684   -0.92264250778645
O          -0.24929062378016   -0.25406621888448    2.12980097033353
H          -0.03975335419384   -0.57862602765825    3.00653494911322
O          -2.47483934681506    0.94735599583865    1.20616284841652
H          -1.83642121935744    1.44547977334582   -0.17000440224572
H          -1.74830268319521    0.42088473749924    1.60254476607124
H          -2.69166013470039    1.64783193585873    1.82490737173875
O           1.19117452441414    1.34162177865355    0.51917890884203
H           0.73502213833852    2.18659249814322    0.54130169754706
H           0.71728309879382    0.75258183428493    1.14808822337824
H           0.90465979189281    0.92410815295707   -1.01665351393896
O          -0.06190817783026   -2.17170875239211    0.46919542907814
H          -0.65832255536829   -1.80197284271387   -0.20734747322700
H           0.83994321360699   -2.06555268736055    0.08662281898541
H          -0.19989289823406   -1.06738929392239    1.51128619537791
N           2.30122142804812   -1.45832071485472   -0.69733712981103
H           2.68050846552616   -0.67553270586942   -0.17772687130669
H           1.93267195515002   -1.08729235579952   -1.56632437655759
H           3.06337173907124   -2.08565362641522   -0.92128331004695
