    23
        -45.36514202  Gyration_radius:  2.28500676132 Dipole_moment: 7.084
 S          -1.08707099817858    0.90861905156441   -1.33851719450785
O          -0.50584445270200    1.40626842011191   -0.08327985306366
O          -0.11826257565334   -0.06130955172644   -1.93358113507441
O          -2.33814630712140    0.05487962267463   -0.93389859393525
O          -1.47740075787970    1.93590110742931   -2.23911016456474
O           0.23578809117989   -1.36676169758961    1.98337969318090
H           0.25577484986813   -1.88730325410113    2.78745653920208
O          -1.78548175315916    0.31899740165385    1.92602001383813
H          -1.37216740031076    0.86617455156247    1.21787273612576
H          -2.62077320603261    0.02249253686178    1.55694076932422
H          -0.54101971563548   -0.75121983984799    2.06812332322963
O           1.73096942455675    0.77956142593429    1.16193925839849
H           2.19299112230993    0.64877638563177   -0.28305635734690
H           0.90045745918686    1.22370577016467    0.88330177286093
H           1.41981826094040   -0.06302429306611    1.54094732249807
O          -0.92071716376225   -2.08383163546957   -0.43207761291145
H          -1.96808372279496   -0.83240409874494   -0.70095325459266
H          -0.40787445256088   -1.61346344045009   -1.11184943671768
H          -0.44118943155770   -1.96894956921531    0.40666920115500
N           2.24818083251435    0.62272516469168   -1.36668300288467
H           2.44107660454447    1.55282178163081   -1.72455538379247
H           1.22216208367865    0.32879101169048   -1.68029102412710
H           2.93681317856950   -0.04144684139136   -1.70479760629429
