    23
        -45.35323600  Gyration_radius:  2.35121705945 Dipole_moment: 7.308
 S          -0.59505000882543    1.75950908354642   -1.24438964472634
O           0.95511449482184    1.61496947814660   -1.11626728750280
O          -0.97189980728298    2.20266610373389    0.21014482065067
O          -0.87651364086077    2.77915670969054   -2.18311397505952
O          -1.15817477178668    0.45806731827278   -1.46702447651994
O          -0.58096354710248   -1.35838279549138    1.57347485115285
H          -0.53278039319488   -2.14562736313775    2.11739326006697
O          -2.52757810384009    0.49025948730135    1.36297059960292
H          -1.65023312908604    1.56403815103357    0.57141605053842
H          -1.91837752644820   -0.27551529712584    1.43101370873446
H          -2.76598098625017    0.74684729475687    2.25620263462272
O           1.22308250016044    0.60917174787071    1.27284182221193
H           0.84916325765814    1.35657628864307    1.74630586774708
H           0.60884316179531   -0.14559065962008    1.41482754642295
H           1.12714739877274    1.17806130773820   -0.23772372412612
O          -0.32981387480254   -2.02192610442069   -0.86946921443104
H          -0.78424750122078   -1.24750592311317   -1.24861664106660
H           0.62405084306066   -1.86499332994213   -1.06020336162360
H          -0.51678834348883   -1.68284472574878    0.60553846509095
N           2.23238272984951   -1.16137274717771   -1.25512566819454
H           2.95878002799437   -1.66548687229033   -1.74790847676972
H           2.60236797376495   -0.87463480275846   -0.35661895495600
H           2.02746923632114   -0.31544236990749   -1.77566819187791
