    23
        -45.35323601  Gyration_radius:  2.35134482259 Dipole_moment: 7.309
 S          -0.60767607662556    2.04466319029826    0.67088809444231
O           0.28195446489602    2.07609042204608   -0.61272668218332
O           0.44281888275262    1.60919590542381    1.74833212827352
O          -1.08817602753994    3.35155083140339    0.91837464955567
O          -1.56521988833827    0.98367913171669    0.53724327025343
O           0.36083342176008   -2.04499212678018    0.59086572066303
H           0.50340738246700   -2.98404244548525    0.46522557037454
O          -0.17706514324876   -0.65391187325227    2.83336651408860
H           0.10648461178119    0.78714415084901    2.20588246889077
H          -0.07649878545552   -1.24813878416381    2.05952907015860
H           0.45742533106800   -0.93599768551985    3.49545289301362
O           1.84980809446181    0.02601482358109   -0.25192450054260
H           2.27765974045836    0.35723880070894    0.54168600962578
H           1.34143269412852   -0.77131114672456    0.01804219259292
H           0.87339322350209    1.27582123616256   -0.56719356574703
O          -1.58196435836970   -1.29810019349982   -0.87180148609878
H          -1.82768227130207   -0.51314955429396   -0.34879514992247
H          -1.14572642069055   -0.93126167432892   -1.67553452866789
H          -0.45099875947332   -1.80604141830932    0.01643291248682
N          -0.15222460346816   -0.00975267920722   -2.80868673055627
H          -0.33852038326599    0.94483138784010   -2.52103248988218
H          -0.31456130890599   -0.07510400780409   -3.80563507611958
H           0.83109618940754   -0.18442630067510   -2.63799125470491
