    23
        -45.35323588  Gyration_radius:  2.35129264554 Dipole_moment: 7.306
 S          -1.45602083982417    0.90400451302910   -1.43524557133100
O          -0.52210203953343    1.71266815020500   -0.70433217982458
O          -2.37670196342597    0.17759385369266   -0.39665932677165
O          -2.21644745317318    1.51909493143224   -2.45674985151622
O          -0.68848769030103   -0.31041979107249   -2.04866360492701
O           0.51129771313036   -0.31046840709690    2.07364730186817
H           1.07116833166118   -0.54526111236044    2.81483101818112
O          -1.87646058845430    0.93441196534277    2.02403122484143
H          -2.21555344342525    0.57725900107782    0.50478712813041
H          -2.43245123183529    0.49757351207811    2.67255571964690
H          -0.96851372099341    0.57862970100365    2.12936672827351
O           1.82282911010701    1.18098322152426    0.48384625353791
H           1.05464335902366    1.61594233499316    0.07070933569826
H           1.06855924024790    0.31834405723221    1.49045013208962
H           2.15321059613586    0.55926971999718   -0.20550787344477
O          -0.31923635845163   -1.84058898883584    0.02798249997359
H          -0.46269601324614   -0.91537549041493   -1.29005213720788
H           0.02633674569259   -1.32843808078715    0.79311869595891
H          -1.24852474060575   -2.00386086997314    0.20768161004024
N           2.29940938046935   -0.65220917244785   -1.48269438991482
H           1.98644757231370   -1.55622293418673   -1.14891456518288
H           3.17732740984847   -0.78346392571298   -1.96919019768557
H           1.61196662463717   -0.32946617873248   -2.15499793043525
