    23
        -45.35323589  Gyration_radius:  2.35121467013 Dipole_moment: 7.306
 S           0.70360274971011    2.02800014207283   -0.62250262993769
O           1.34428675238961    1.84338634381457    0.79508290175250
O          -0.69416214740517    1.71903792420937   -0.51653289626267
O           1.07259588317284    3.26622345065088   -1.19766609482557
O           1.40748510043757    0.88116535439268   -1.41584399265639
O          -0.86389603097332   -1.18725260119965    1.58166715347252
H          -1.29147740192475   -1.94903164454612    1.97511362084752
O          -2.06813110387135   -0.58350697275887   -0.57624423071442
H          -1.80027585945624    0.35329930022026   -0.60184597917517
H          -1.52621421808253   -1.01328817782911   -1.27806031869317
H          -1.40796616379598   -0.96215505374196    0.74524068847425
O          -0.43225268493451    1.27464924065778    2.58466843626996
H           0.61014930635264    1.72753663083211    1.46292027279369
H          -0.71664199055537    0.39116261891952    2.26744757907705
H          -0.05509323426907    1.15727740458778    3.45904257198438
O           1.51880050059525   -1.03047631780674    0.35141195261734
H           1.43167067243965    0.09072522772386   -0.80994248204507
H           2.08458856770781   -0.56800989162401    0.97481533057915
H           0.65240460887174   -1.15341826799484    0.80023098077798
N          -0.22050618117167   -1.53541641595183   -2.34674800201480
H          -0.42284480258479   -2.06608625084183   -3.18468912016204
H           0.48776256781717   -2.03465265188957   -1.82166896746558
H           0.18611511949487   -0.64916938191841   -2.62589676466957
