    23
        -45.35323591  Gyration_radius:  2.3512586257 Dipole_moment: 7.307
 S           0.06360079466705    1.52946138037847   -1.62964180932479
O          -0.87018638290418    0.43978549542129   -1.66182084496359
O          -0.23628012276305    2.38025090238707   -0.34904248885806
O           1.47743303736163    0.96231277549179   -1.28315514343163
O           0.17558894065590    2.34814729498869   -2.77737417731519
O          -1.06692901368063   -0.73470532560858    1.72679419205212
H          -1.30068870288696   -1.35816050493155    2.41568911992551
O          -2.31489456571357    1.50971028868381    0.91728682340020
H          -1.10026389841308    2.06862531065681    0.04446055791252
H          -1.98363657158783    0.63416014599221    1.21021294585128
H          -2.51138693117987    2.02022524805957    1.70549384222859
O           1.27880924181858    0.49217908310803    1.27211472365507
H           1.45252943289934    0.70594638281541   -0.32083443538944
H           1.13288030252344    1.40327822178286    1.53887451537817
H           0.45128221306041    0.00434551969411    1.48265748262181
O          -0.90328356759994   -1.97209398746330   -0.48953552790640
H          -1.06722062485905   -1.20363308884687   -1.06634439468950
H           0.06027781878926   -2.15287714559260   -0.58904562801402
H          -1.05448304929477   -1.27173904802787    0.85614994609830
N           1.81652547955584   -2.02386303587824   -0.71928935066510
H           1.92038865402220   -1.29090701800535   -1.41259354321914
H           2.36915788666846   -2.81817532891109   -1.01636664918074
H           2.21077962886147   -1.67227356619319    0.14530983383809
