    23
        -45.36514201  Gyration_radius:  2.28498990706 Dipole_moment: 7.084
 S           1.49275738878248    0.39768705769290   -1.18855021230912
O           2.49711746774997   -0.26793787927731   -0.18554857967850
O           0.37725598727607   -0.54756586102291   -1.34101033748251
O           0.96902651693336    1.60728308983526   -0.48424541747934
O           2.15988076474650    0.70184864774674   -2.40558237625391
O          -0.98297995640460   -1.19854628251503    1.85840601128556
H          -1.31670395550511   -1.72770151318502    2.58402461303522
O           0.71309972633263   -2.52434468707785    0.34314147383122
H           0.61540683139802   -1.89024235944321   -0.40524540477169
H           1.64592717442295   -2.50175761201692    0.56933603076519
H          -0.37591121379225   -1.78976911142049    1.33740249048224
O          -2.12261189804033   -0.43051772477387   -0.51395229553971
H          -1.88291125526673    1.04054527399855   -0.82550291321586
H          -1.29282391761517   -0.68919339872210   -0.97129993136545
H          -1.94642887493933   -0.65677571663925    0.41781691599347
O           1.17845985958925    0.53644648716804    1.92375851574040
H           2.13361735640833   -0.05275343847204    0.70890188065640
H           0.98542903160406    1.21238031559719    1.25130337649509
H           0.36893336387271    0.00629715376846    2.02501481599402
N          -1.44899032151338    1.99336541010286   -1.11156597921951
H          -0.37073815610459    1.88281250883152   -0.86134332111190
H          -1.86101865345866    2.77388381781068   -0.61089258939937
H          -1.53579327647536    2.12455580201385   -2.11436676645324
