    23
        -45.35323591  Gyration_radius:  2.35118228454 Dipole_moment: 7.310
 S           1.03767063990385   -1.39969242233812    1.40121874834839
O           1.71845762834455    0.00511985091686    1.34530286201571
O           1.64527139279062   -2.15422885265711    2.43155662374683
O          -0.38535203271304   -1.21620593188364    1.44350099753152
O           1.40664986118134   -1.96372302284004   -0.01279441116773
O          -1.25187510038670    0.18145780139334   -1.74876800718557
H          -1.82849189677779    0.62099083458199   -2.37503689233382
O          -0.69707651533473   -2.43515662848909   -1.43872029228970
H           0.56330152949834   -2.22298602068350   -0.48189598200940
H          -1.02981342824561   -1.52040542516112   -1.55976173238417
H          -0.48667149226450   -2.78085324132251   -2.30862175756844
O          -1.99895543289178    0.75905483566918    0.61313690489105
H          -1.61828048262242    0.41166192761773   -0.82180684609052
H          -1.61892206544021   -0.02390489494161    1.05196395696939
H          -1.40420899894982    1.50003390687617    0.87446037593209
O           1.30325417833977    0.72638870971229   -1.12425385349836
H           1.54648247317530    0.36741742616246    0.43352107058887
H           1.80926188292466    0.01800045144616   -1.53009778777489
H           0.36603392044727    0.58391864609045   -1.38597257303708
N          -0.01272358481591    2.52427273394057    1.23911426921463
H          -0.13556282946078    3.41051889472105    1.71239717394256
H           0.53367480498083    2.68797365326464    0.40183028936573
H           0.53787555830371    1.92034679791363    1.83972688278046
