    23
        -45.35323597  Gyration_radius:  2.35122224779 Dipole_moment: 7.308
 S          -0.85897339190631    1.59557703924177   -1.30980600054936
O           0.21559845959350    0.73282756987150   -2.04550038959687
O          -1.70019945111532    0.72092898065401   -0.54313980397346
O           0.04016846626394    2.39631029977018   -0.30767155615152
O          -1.47039001900530    2.45408078190770   -2.25281162614664
O           0.41937964036624   -0.62209349076428    2.02394039184141
H           0.65157375566217   -1.23122754251030    2.72605006680526
O          -0.56734502597420    1.88018622734217    2.15118271115904
H          -0.29989916488657    2.24065714673849    0.61894156353238
H          -0.30154951886047    0.93720053437152    2.19865693383714
H          -0.02426622891355    2.36287335808882    2.77776127932007
O           1.85962622268254    0.12930658286595   -0.11548390582297
H           1.37724278130532   -0.19274707323804    0.67872568344916
H           0.85232779510354    0.41751614811043   -1.34737049037797
H           2.13216359390877    1.02961698916523    0.07888977058507
O          -1.32301245791756   -1.71074938908990    0.52405058650215
H          -0.79586866743728   -2.07516133030844   -0.22447976625251
H          -0.30892787815096   -1.08893297974011    1.47801455369033
H          -1.70691588539032   -0.88676233769525    0.17240526644840
N           0.28883558342605   -2.29309861394436   -1.60122810805948
H           0.29336390611332   -3.16113250694031   -2.12195768770972
H           1.24306222250269   -2.08154961107928   -1.33429668212729
H          -0.01599472738687   -1.55362677281302   -2.22487281039557
