    23
        -45.35323592  Gyration_radius:  2.3512776501 Dipole_moment: 7.305
 S          -1.55864500803491   -0.14217920786089   -1.59577981974964
O          -2.39156081641542   -0.27293408198524   -2.73123132253134
O          -2.40059199862074   -0.03785636151188   -0.27887703458306
O          -0.81616816822612   -1.49695146775933   -1.36443405485414
O          -0.59036017971374    0.91737001782255   -1.58310659085119
O           0.64972615688988    1.03178853112647    1.78097231876747
H           1.25955028094102    1.29277118707660    2.47230351054549
O          -1.75415732778857    2.04441629355707    1.11013537521149
H          -0.83612419641445    1.80518931619442    1.35916200930145
H          -2.18653334577615    0.83039818519924    0.16673384821010
H          -2.26014661983170    2.12213794910044    1.92160320396874
O           1.83474291004080    1.17142686468863   -0.46597978196718
H           1.15925570901248    1.14462389060786    0.90140758548639
H           2.12798695214433    0.24637070041467   -0.63675087446227
H           1.03523804633480    1.27774928134412   -1.01317931571556
O          -0.29125542504733   -1.41305992251228    1.18661489091193
H          -0.53295863855079   -1.50510490729944   -0.40938690052055
H           0.09644906708447   -0.54678142141196    1.44429609579841
H          -1.20456979477048   -1.40125207596646    1.48373731583795
N           2.20667494802220   -1.50029995367052   -0.88869351355808
H           1.92833076237583   -1.99104638701955   -0.04713779178072
H           3.05258679087715   -1.93190790849884   -1.23902485928761
H           1.47252992547087   -1.64486854163153   -1.57338428416894
