    23
        -45.35323588  Gyration_radius:  2.35113460692 Dipole_moment: 7.311
 S          -1.66247333193304    1.45165852603915    0.35715056053718
O          -1.48598223115856    1.10390703631489   -1.15554684269861
O          -2.60752255248087    2.49753016272263    0.47190089251399
O          -2.23615450643581    0.10140947223266    0.90617001176825
O          -0.36317920114617    1.64475312672613    0.93596605631950
O           1.20172030736570   -1.58564034598796    0.83487480258064
H           1.94083600969708   -2.19291009637482    0.88825059755712
O          -0.67141233022807   -0.96353790607803    2.66645185188151
H           0.10110165079708   -1.17633911259704    2.10066701593985
H          -1.64925012406657   -0.21447696819521    1.65067252469789
H          -1.01034339917472   -1.79196201455742    3.01192346323510
O           2.07736830499786    0.73945114697535    0.28982456342816
H           1.96332621376774    0.81184348602300   -0.68632097332437
H           1.32615562474868    1.23830875087447    0.65983175593223
H           1.60901357145914   -0.66434845919399    0.65613234018903
O          -0.68257528058279   -1.37370564144540   -1.06754280226194
H          -1.12230038093813    0.17733956142839   -1.19289207532063
H           0.04009898722046   -1.49214112615994   -0.41111098249363
H          -1.47756685107384   -1.73091404221261   -0.66390480179613
N           1.32494866872494    0.84392073454155   -2.33226326252243
H           1.88983501190442    1.19244729893810   -3.09644741922248
H           0.52069743523068    1.45355721110391   -2.23160409220389
H           0.97365841329706   -0.07015080112450   -2.59218319474544
