    23
        -45.35323588  Gyration_radius:  2.35119300193 Dipole_moment: 7.308
 S          -1.90011060552088    0.66560844854934   -0.97245777648331
O          -1.34308473715976    1.98126012839499   -0.33023228693312
O          -1.89378325978266   -0.35363168024100    0.03827586460014
O          -3.10498472840010    0.90453646681441   -1.67344794343687
O          -0.77652459985919    0.34429432553016   -2.00913932781617
O           1.21999572641835    0.06507995889678    1.77962264451495
H           1.92381506881216   -0.20048665749214    2.37296224331973
O          -0.88101815306186    1.69632640279970    2.19697937231636
H          -1.27830363694660    1.84995706439756    0.65824080208416
H          -0.14746375278773    1.04588200606492    2.16482257635406
H          -0.53852350345092    2.49436990453619    2.60483648506932
O           1.38259246065240    1.03085322486574   -0.72168250793364
H           1.38773830192541    0.66238414248859    0.19009059873781
H           0.09026104575180    0.53304361471696   -1.55596191969126
H           1.16628791422456    1.96286906454000   -0.63701167798550
O           0.00803381647904   -2.01126011470749    0.94896106251267
H          -0.83757879646588   -1.57671543171597    0.73406902495145
H           0.42125059227544   -2.19141798462068    0.07267719826692
H           0.74190361419614   -0.79780443703349    1.50873754872099
N           1.03010573052804   -2.08492287349480   -1.58137349874200
H           1.75499794859919   -1.38005657238225   -1.64716041996107
H           0.22133543758903   -1.72635242081297   -2.07741551882612
H           1.35305811599157   -2.91381658010438   -2.06439254364024
