    23
        -45.35323592  Gyration_radius:  2.35123751857 Dipole_moment: 7.306
 S          -1.83407018920998    0.41352597817367   -1.20845132951675
O          -3.06191244451215    0.49693847921708   -1.90529791370304
O          -0.84778125160290    1.54702597554879   -1.65165502525273
O          -1.86823128050865    0.39722344299001    0.22647359179928
O          -1.06680160587666   -0.85449085047411   -1.70191731259220
O           1.53803090233490    0.83664394214509    1.26151247804266
H           2.26236179848014    0.82577309720330    1.88853832873501
O           0.04085112283187    2.89044845942845    0.37023983827861
H          -0.61529876508406    2.09701602512295   -0.85052502948342
H           0.56597714089231    2.19448271817690    0.81958136381735
H           0.64836725719559    3.58793285492469    0.11531374581924
O           1.41343185919782   -0.23354648672752   -1.19897844401537
H           1.51496062276666    0.12521801762569   -0.28892242763755
H          -0.10589356157672   -0.70657400249030   -1.48457811965918
H           1.45880916964149    0.51883640056006   -1.79433101951504
O          -0.29270286478384   -0.72712157035651    2.08297543030600
H          -1.02992170144155   -0.30513865204879    1.60504657507125
H          -0.12766735595721   -1.56430590723294    1.59021347432040
H           0.81679274807910    0.22860672286713    1.65686018105256
N           0.13082486791303   -2.78880692214469    0.34376816181952
H          -0.64981421023748   -2.61777214579921   -0.28069278366948
H           0.13304401016821   -3.77259427838871    0.58187075158275
H           0.97664373129258   -2.58932129831509   -0.17704449560558
