    23
        -45.35323606  Gyration_radius:  2.35126983591 Dipole_moment: 7.311
 S           0.11274274360189    1.21641020602114   -1.87299913212567
O          -1.30220686277607    0.59356460283839   -1.64877251103353
O           1.10268215627595    0.22487307817065   -1.56101866291630
O           0.14455913846036    1.81262587034980   -3.15506487720360
O           0.14314027640049    2.29751855008707   -0.73979726514402
O           0.81159820463417   -0.33029739882901    1.97260087840059
H           0.96597959430335   -0.80241160521732    2.79185771210012
O          -1.49841365719766    0.58284476535899    0.94987323317948
H          -1.42049260781712    0.50683511592830   -0.66350581153941
H          -0.68813399627594    0.21539291863536    1.36884137818177
H          -1.45583353256621    1.53548363999048    1.06508658130858
O           2.03290337733869    1.84806897836580    0.96567955967914
H           1.71348717353940    1.00822457356537    1.35910814085291
H           0.94764617787586    2.13759781236421   -0.16910406948051
H           2.06273443968347    2.50047127516347    1.66854145505295
O           1.09187145075926   -1.93988303626135    0.02280403578144
H           1.30138887622646   -1.27002555083930   -0.65345116311774
H           0.97625929029128   -1.00769913101659    1.22400628068735
H           0.17049013717482   -2.21995986873672   -0.18603194393425
N          -1.54535926666063   -2.27033848197212   -0.60117703684819
H          -1.99595942465819   -3.14921681424043   -0.82284462494974
H          -1.57657887719192   -1.68331954974375   -1.42765865482497
H          -2.09450481142283   -1.80675994997786    0.11302649789188
