    23
        -45.35323596  Gyration_radius:  2.35129375216 Dipole_moment: 7.307
 S          -1.84284802844679    0.95232896455562   -0.83311752243760
O          -2.93050401338701    1.51316480310946   -1.54204983709204
O          -2.15198733774088    0.84971768105151    0.69915792065793
O          -1.72751205822124   -0.55865503227803   -1.21243177931255
O          -0.55096830706011    1.56029282952059   -0.98080406348727
O           1.50051218475471    0.05798922773269    1.55038324006459
H           2.32927403391987   -0.15832570145146    1.97967978060562
O          -0.30922244396851    1.96756899976921    2.12663160474010
H           0.44377420019549    1.37000387376392    1.93182985898107
H          -1.46835982526541    1.38150247474571    1.19728676154026
H          -0.48315252094117    1.91168872221697    3.06852843362878
O           1.94909132498679    0.59293944020164   -0.89602036182222
H           1.15706198927159    1.14165897929377   -1.04286698403988
H           1.74041137941764    0.30357875792237    0.58698359242646
H           1.75247126134313   -0.25219843556444   -1.36290700398940
O          -0.53009678443189   -1.56441948264408    0.87201802242331
H          -1.22202765753731   -0.99802521017212   -0.47496137129079
H           0.24909531836900   -1.02406572684557    1.13286144387956
H          -1.22504217636545   -1.36176499425633    1.50332122834945
N           0.99449350084394   -1.71834071316408   -1.99228541690649
H           0.11129830143519   -1.36235456706878   -2.34149712223286
H           0.77875779511413   -2.35680974542560   -1.23571476370291
H           1.43547986371573   -2.24747514501695   -2.73402567097369
