    23
        -45.36401759  Gyration_radius:  2.40212570114 Dipole_moment: 1.955
 S          -0.54064494541144    0.93148523533341   -0.85375494915463
O           0.77361287852161    1.05624166357461   -0.03622452658733
O          -1.28441079824790   -0.23002473422799   -0.15500046837698
O          -1.32010925697208    2.11310342338553   -0.68969547797443
O          -0.18399148834536    0.53267498182335   -2.18288908481203
O           2.43294199090451   -1.20616454143680   -0.15201515816703
H           2.11493640290146   -0.30519720752140   -0.00526096869273
O           0.06703509251643   -2.32382920755889   -0.49636400556761
H          -0.77187345529986   -1.12116022348102   -0.29909518956726
H           0.21573363783232   -2.41397053330022   -1.44821671388078
H           0.95699276676547   -2.06125781317166   -0.14860760025306
O          -0.22762737480375    2.47968708454912    1.74768431402445
H          -0.76909309503644    1.81400121466439    2.25588431677408
H           0.50477365805398    1.65249174360961    0.77176703865141
H          -0.82653172641462    2.83964026185970    1.07649913111429
O           1.45635680760699   -1.45786052483813   -2.76801309827441
H           1.66740067358798   -1.45661481162890   -3.70253978116512
H           0.87441636917607   -0.68204622452822   -2.62006493741396
H           2.52619294793501   -1.30054510229566   -1.11151870311537
N          -1.76118853004576    0.50712101434285    2.69236515475779
H          -1.87226474525244    0.08805093961396    1.77315311975504
H          -2.68182098967546    0.73143816160449    3.04807320630207
H          -1.35083681025278   -0.18726482036360    3.30383439162140
