    23
        -45.36140461  Gyration_radius:  2.48293739903 Dipole_moment: 3.032
 S          -0.67469688265704   -1.12526497338483   -0.52806611065704
O          -1.20140744389353   -0.71124158977264    0.74799529257302
O          -1.77838560235530   -1.25761978639463   -1.57167777790969
O           0.18481377823207    0.04676514485073   -1.08710361924105
O           0.09517630117019   -2.32934004735667   -0.50133888410168
O           3.05570460849574   -0.16440756697570    1.61547492031097
H           3.84071708419357    0.23761728645768    1.23967952468751
O           0.79103967709513    1.09676378397471    1.12478273255468
H           0.51182982900127    0.57435035246599   -0.27426308246566
H           0.11825098803589    0.53148724830156    1.53031699158855
H           1.66508901246922    0.70589057169560    1.38211882762711
O           2.65709024423870   -2.40157256513730    0.21721658158775
H           2.74573214362718   -3.24619611821986    0.66309417428916
H           1.74146710238376   -2.38163210091208   -0.12797209203947
H           2.93070101104814   -1.01526270975195    1.13463423418322
O          -2.22737688000356    1.14728731662265   -2.20666876956685
H          -2.30905033007513    1.55182446748162   -1.28929146569952
H          -1.35701187823711    1.39355819084598   -2.53148238164571
H          -2.05545692376571   -0.31443781141061   -1.87371028937321
N          -2.21883712601604    1.91830658549836    0.31251694999882
H          -1.42783608701675    2.48849898651249    0.58735728281849
H          -2.04523366189066    0.97532277917726    0.65977270271777
H          -3.04231895407079    2.27930256542667    0.77661427776689
