    23
        -45.36140454  Gyration_radius:  2.48264193592 Dipole_moment: 3.035
 S          -1.39855326885746    0.14486534191424   -0.15368620007435
O          -0.14888953778741    0.15093593375661   -1.08281405456045
O          -0.95209534906984    0.45349240037244    1.18141102324519
O          -2.25047950661416    1.26939752766670   -0.73196048290079
O          -2.10121656346397   -1.09303072070943   -0.28410173981651
O           1.58520418838341   -3.04004724600079    0.45915767931510
H           2.18056075522388   -3.39676930471976   -0.20215423916460
O          -0.51958716607990    2.98855615951993   -1.39249527638259
H           0.02228030041552    3.01642036824034   -0.54538570904066
H          -0.00885478899976    2.47044244996131   -2.02047542343389
H          -1.62845853610258    2.04145003869129   -1.00543826682648
O          -0.87286921370332   -3.44472243183893   -0.49621953329704
H          -1.45405447736078   -4.04884604137193   -0.03008036193676
H          -1.33908143286199   -2.58422726138790   -0.50284680627962
H           0.67466245493383   -3.22905629839978    0.13372456619263
O           1.57290769144819   -0.41060935358191    0.67297696861086
H           0.65180336297986   -0.07191952825583   -0.48679374868681
H           0.89170809306912   -0.23547340559513    1.33776052326924
H           1.67783264146892   -1.39609005481230    0.64515696145086
N           0.77447201346856    2.70504712989955    0.88450227718124
H           0.11950607500140    2.00662075669888    1.23549092818764
H           0.84279376392808    3.44650965544662    1.56959864192148
H           1.68040848055612    2.25705385448752    0.81467227301070
