    23
        -45.36401752  Gyration_radius:  2.40171909767 Dipole_moment: 1.948
 S           0.80116897310110   -0.16983369572515   -1.10618338623158
O           2.05069481704118    0.36556246070302   -1.53357474210646
O           1.00577945923548   -0.79806623817887    0.29163878618298
O          -0.19649669613314    0.98872869492632   -0.83368329771608
O           0.14067615437415   -1.11459964154676   -1.95712168063515
O          -2.71057555889243    0.16511202767009    0.10704147623926
H          -1.99773353558542    0.70436787773462   -0.26111075229102
O          -1.18894067350418   -1.79033379208977    1.01645644692023
H          -1.80686199703222   -1.01979494492692    0.93702929148541
H          -1.47926613410603   -2.38469500199291    0.31027897912341
H           0.12699551415700   -1.24664854294897    0.61423445175158
O           1.55830807117815    2.60908729766375   -0.12183561606981
H           1.78887021611859    2.26846610971210    0.78664451880553
H           2.16838007561873    2.16154586353444   -0.72703161702769
H           0.41361104382706    1.77012873059264   -0.52123475149150
O          -2.29336793077623   -2.06295265987931   -1.54244669585642
H          -2.59661658631448   -2.55750320972575   -2.30494121295702
H          -2.95567778311489   -0.46042905422995   -0.59072330500190
H          -1.40522170147644   -1.71891971644823   -1.77741944186211
N           2.10904517786776    1.27512683629146    2.12607291939530
H           1.49972089985857    1.38737037650697    2.92642565483624
H           3.06381178776126    1.25283286939575    2.46122183811210
H           1.90369639685020    0.37544735294788    1.70026214637938
