    23
        -45.36398995  Gyration_radius:  2.41584280704 Dipole_moment: 2.002
 S          -0.80933103916439   -0.32642980901628   -0.66932238108343
O          -0.73034084411221   -0.71057849166466    0.81821933957412
O          -1.05049020887447   -1.51268987383386   -1.42419879781647
O          -1.72306685118466    0.76475351479102   -0.84171681046071
O           0.60659368255905    0.22113219809995   -0.99407622298749
O           1.29641239087217    2.56696712109652    0.41299247566010
H           1.29959711677166    1.84851308757283   -0.23295862408740
O          -0.38747096081157    1.42706688043627    2.10932957885191
H           0.42379391603638    1.80997249905507    1.69351033037258
H          -1.08841991876752    2.03739441348585    1.84001647507332
H          -0.61002002980508    0.13944125834368    1.39227262554545
O          -1.43475021530016    3.18050231013863    0.18954903243144
H          -1.58022877046627    2.31954413946456   -0.25803420827579
H          -2.10209433316991    3.77547417996124   -0.15425529189139
H           0.53977253876159    3.12653007567440    0.18446648468706
O           2.01923947003138   -1.84396134064430   -1.27889925174031
H           1.23806880427941   -0.58633415118281   -1.10326846252640
H           1.53719416752927   -2.48262107270177   -0.66672424821659
H           1.82504496069141   -2.14138580136804   -2.17117146835076
N           0.42119720520196   -3.33393609951596    0.17767794309503
H          -0.36164768605533   -2.93190230127889   -0.33576495197580
H           0.34544632776108   -3.00581254588133    1.13232750112111
H           0.32550030723198   -4.34164019101714    0.18002892303476
