    23
        -45.36140465  Gyration_radius:  2.48263392174 Dipole_moment: 3.037
 S           0.63790695475595   -1.18560178916084   -0.43409598185400
O          -0.04876199096044   -1.35493613382475    0.82165667972772
O           0.22978885080602   -2.25399463482816   -1.44252265303743
O           0.10736303761645    0.12340351179059   -1.08988829576402
O           2.06371103123659   -1.14519087568201   -0.34149672336003
O           1.64313228570188    2.61567881166041    1.55965561235812
H           1.72251481730612    3.47531008482690    1.14274650739741
O          -0.58215640964768    1.30042476119813    1.03172196203556
H           0.19146620142371    1.86097981398254    1.29672848197869
H          -0.21347237332999    0.71809767711864   -0.32199978412674
H          -0.46563333008494    0.45539569180700    1.48900715293412
O           3.41409755530853    1.05067852899336    0.32143793781762
H           4.16107906366531    0.71689451915579    0.82212337229435
H           2.94062606651750    0.25816271722647   -0.00377195593998
H           2.32787693587454    2.04618223629322    1.13837178964703
O          -2.02593814791266   -1.43328776099918   -2.23358789025433
H          -2.45782000627613   -1.24530323507311   -1.34475747767414
H          -1.76990174965777   -0.57940242452549   -2.59276951060147
H          -0.70469160948212   -2.02125719332913   -1.80364467178243
N          -2.80050839285261   -0.89361238215827    0.22593071760554
H          -2.89130578753450    0.09139453334330    0.44476514962628
H          -1.92183276405338   -1.21254681747583    0.63369315814969
H          -3.55754022840536   -1.38746964034276    0.68069642282298
