    23
        -45.36140456  Gyration_radius:  2.4822006591 Dipole_moment: 3.040
 S           0.69748528551747    1.10118800088288   -0.55154147289594
O          -0.07025928363187    0.38356148065206   -1.53779895633666
O           0.16276718540672    2.37345200342186   -0.17911239027502
O           0.82678119281992    0.18765639275178    0.70300005272783
O           2.14746710615935    1.27435132872044   -0.99003917293181
O          -2.98404896897331    0.27427753840531    1.72878143305460
H          -3.04098986822480    0.06300448592233    2.66218405552399
O           3.14098642362396   -1.00230746557125   -0.52406542167649
H           2.98165563437012   -1.05711977880274    0.42213548327418
H           2.44367358873518   -1.58191584975796   -0.95957227308216
H           2.63504912537992    0.37734185030943   -0.86541791862986
O          -1.26755560096985   -1.17051237425830    0.34128221754375
H          -1.31057144133830   -0.79069253347619   -0.54788017466305
H           0.01536451777527   -0.43501899617153    0.68810260705427
H          -1.97901960274775   -0.71907403238619    0.86387209616695
O          -1.79285314975021    2.65840698983243    1.60380583752165
H          -2.29562373191138    3.40537689102400    1.27328235827769
H          -2.58758455676692    1.17486596664131    1.67887899815346
H          -1.01901186549059    2.57916332418100    1.00974084951931
N           1.07273543367428   -2.22995792042127   -1.59900319018001
H           1.14454092205738   -2.78546284432365   -2.44165463532892
H           0.60234846241412   -1.35588617069491   -1.83290042772513
H           0.47666318186330   -2.72469827686332   -0.94607994508344
