    23
        -45.36140456  Gyration_radius:  2.4822558362 Dipole_moment: 3.041
 S           0.45630630339208   -0.24618510829260   -1.31611307564871
O           0.41624176308770    0.59898868651811   -2.58452820457872
O           0.48250050467352   -1.63008379564510   -1.67299914459873
O           1.51556121462039    0.17525968667243   -0.43439155258308
O          -0.89703626521870    0.10333669557375   -0.62966916004062
O          -0.58811676926460   -2.48418231505479    2.33381429498602
H          -1.47147510179744   -2.66405184679419    2.66005116324303
O          -0.08401710684987    0.04024079891212    1.75707919775394
H           0.81764710859270    0.02175885974895    1.40579834004162
H          -0.71378616824589    0.11059604586816    0.37667603900621
H          -0.26702691559490   -0.87824138165165    2.08257433286669
O          -0.49436557534344   -3.55057316367640   -0.11029341544743
H           0.09405788568248   -4.29202431308818   -0.26541011694968
H          -0.53263771047171   -2.91672782074688    1.45033329888753
H          -0.20665084665571   -2.85223871637048   -0.73289701406507
O          -0.69792789719039    2.72617237598616   -1.79619644088375
H          -1.53603293288890    2.36666588311182   -1.49278044456374
H          -0.15351074969921    2.90396125911665   -0.96927536416223
H           0.00067138550477    1.51142421062358   -2.35545949875157
N           0.79142629808418    2.81378135890802    0.37518712812037
H           1.29962695225615    1.96413513023472    0.13066088997533
H           0.30187182168800    2.63001906624819    1.24290768579302
H           1.46667282163905    3.54796841380633    0.54493104160704
