    23
        -45.36399024  Gyration_radius:  2.41570790447 Dipole_moment: 2.005
 S           0.92301530285187    0.11719984906242   -0.58899490620241
O           0.19739860716331   -1.22653630368964   -0.40350447654218
O          -0.11415031722383    1.17434038071150   -0.12324721110369
O           2.03139245478202    0.20038196265466    0.31654769546934
O           1.19432149923159    0.28956824206937   -1.97889091752659
O          -0.80609611979557    1.00116569351484    2.60611925148327
H          -0.70281717871356    1.33034378632806    1.70366276522778
O          -0.18515494303903   -1.51687003014147    2.07098283215780
H          -0.67415575589392   -0.69396948011191    2.31896371660117
H           0.03580131380967   -1.40012640687362    0.60163700749124
H           0.67263659433848   -1.40902342213804    2.50564003478938
O           1.85828448320155    0.18695109242105    2.95334135963368
H           2.71132830434983    0.37161340381862    3.34804887335007
H           1.98960373093455    0.24053884251314    1.98247822296807
H           0.07623589288372    1.03503678046164    3.00392557856563
O          -1.70067381299494    1.38838506901392   -2.06723947574326
H          -1.62711481182141    0.46693069175374   -2.46820496173246
H          -0.80613156079900    1.28989910960855   -0.87850384196723
H          -1.24967489746068    1.97598332464269   -2.67847428145299
N          -1.11468473563561   -0.98761267308001   -3.01847955337247
H          -1.23120513617861   -1.33675883056855   -3.96142966904826
H          -1.34675556175260   -1.73244929863409   -2.37342234220755
H          -0.13140335246668   -0.76499177338105   -2.87095571092837
