    23
        -45.36514201  Gyration_radius:  2.28492207261 Dipole_moment: 7.089
 S          -0.83325903670777    0.79270162644357   -1.57327920478577
O          -0.25857176004959    2.20115355165907   -1.19415148538321
O           0.35733148376489   -0.04774284589852   -1.90417501038753
O          -1.43498244677187    0.25071845494649   -0.34633068268297
O          -1.74691634062757    0.92148847987781   -2.65373415047682
O           1.04305551169633    0.17962431789910    2.17604457095719
H           1.42151821769019    0.32031453711747    3.04488563529092
O          -0.90074232371316    1.87200843772011    1.63942618332711
H           0.31003870049107    0.84509119345301    2.07936814247926
H          -0.67902432762403    2.70847556438490    1.22345484585391
H          -1.25493963216911    1.30974738246206    0.91135226505563
O           1.96106221958897    1.21686242699075   -0.22529874951293
H           1.69256142962553    0.57244256064220   -0.90270919364349
H           0.62512070441884    2.00841437370892   -0.79348288863346
H           1.78476524277846    0.80291752168308    0.63738974837926
O          -0.68416815001282   -1.72604758099007    1.22632374733473
H          -1.19868694669860   -1.01132039045156    0.79130216935068
H          -0.24938638096297   -2.28773353237964   -0.12022920119221
H           0.02699958394416   -1.24358693209071    1.68664781220551
N          -0.03804856347752   -2.43528074006277   -1.17463016033615
H           0.14169447207066   -1.40660541157972   -1.55817126978553
H          -0.85594790338456   -2.81520282509733   -1.64047891991092
H           0.77052623613012   -3.02844019043852   -1.32952421350342
