    23
        -45.36293450  Gyration_radius:  2.48434745531 Dipole_moment: 1.871
 S          -1.01223226842980    0.02982569502798   -0.13622940741460
O           0.15084518423324    0.30109270430097   -1.11829865971257
O          -1.99888528868506   -0.78757052152798   -0.76309795358137
O          -0.33913922821059   -0.78115021913651    0.99471920672185
O          -1.44468946558015    1.30138640542469    0.37603174356895
O           1.96960334433961    2.40119220760247    1.73306254033225
H           2.25340167685114    3.20288366227965    2.17514522716956
O          -0.06431802135113    1.02248080434151    2.71496416733856
H          -0.77689584270329    1.52723761624004    2.30044900249027
H          -0.16791306868253   -0.13256405488635    1.78065710511425
H           0.77449599905962    1.48683181009788    2.46428902352797
O           1.17517017598476   -1.99952983799218   -1.14890738376014
H           1.19888765973765   -2.14622411525029   -0.19863374392561
H           0.41384704412093   -2.55729338370738   -1.49668248567804
H           0.63262927543396   -0.60015267705236   -1.23480008672400
O           0.48833187223840    3.01401962819531   -0.39627888005329
H           0.81657308173076    2.53415144039669   -1.16132685302988
H          -0.32301804032746    2.53980064437552   -0.13608269046852
H           1.50857234080508    2.68645953279571    0.90841427571622
N          -1.04534099244367   -3.22217319790221   -1.87488021441333
H          -1.25365982353190   -3.33019668692037   -2.85934584846736
H          -1.59313196485298   -2.43408933105447   -1.52536397961855
H          -1.36313366970789   -4.05641809566106   -1.39780410517608
