    23
        -45.36140468  Gyration_radius:  2.48270713136 Dipole_moment: 3.037
 S          -0.88776271893678    0.50395080188123   -0.97931832138427
O           0.18143172031816    1.42191116855018   -0.67722987563711
O          -0.93900192147197   -0.55370435558519    0.16254173621559
O          -2.25076248626202    1.17875876135568   -0.87129600196208
O          -0.78361878884294   -0.14751640423798   -2.24735806096325
O           2.51241942735052   -2.28474072098279   -0.66544493891489
H           2.49288489819242   -3.17034735720091   -0.29885024897670
O           1.47893941913305   -0.40006188361508    0.86451560806302
H           0.00621861775234   -0.60173968732560    0.55022785615241
H           1.95523594857568   -1.10846492872565    0.36031104130063
H           1.54234485483665    0.39899502526423    0.32211031018689
O          -2.63223495458770    1.25552136468625    1.62583246154077
H          -2.60219743570519    0.31530528504362    1.82283494302776
H          -1.74683493987454    1.63179375962844    1.91991002233772
H          -2.48383346905556    1.28453948104928    0.12493242478876
O           0.73742458424366   -2.29312526898426   -2.65741559876783
H           0.11069269249602   -1.55688202109694   -2.50557096059429
H           1.05428209745034   -2.18029544889486   -3.55573037137207
H           1.89325011908777   -2.29528849150022   -1.43177033362100
N          -0.17344324920673    2.08824960697906    2.07420986148773
H           0.03261824697377    3.00265913657411    2.45528937288340
H           0.06612627319115    2.09497172811121    1.08294816930982
H           0.43582104435974    1.41551046902435    2.52432091489812
