    23
        -45.36140461  Gyration_radius:  2.48254396799 Dipole_moment: 3.038
 S           1.05413056967491    0.70760490368852    0.62447020909864
O           1.14064841044020    0.74173870660745   -0.81377004159721
O          -0.38702221138948    0.25304246077063    1.00052494772667
O           2.01675016348212   -0.13119173402141    1.26710753073596
O           1.12958186416752    2.10834334099680    1.22203926740304
O          -0.07062782670160   -3.44112596886971   -0.35616142932123
H          -0.72500281039667   -3.97597906012476    0.09632171462590
O           1.71595691809527   -2.76522734590752    1.50665107157254
H           2.60987216600503   -3.10480114743073    1.43100955747066
H           1.80400982325165   -1.79041898639645    1.50134972427831
H           0.61692145778377   -3.22809370526237    0.31654116424264
O          -0.88446364612079   -1.04556689411794   -1.10376945249271
H          -0.09389249790099   -0.64237158881644   -1.48993487827253
H          -0.64106847417056   -1.98647486883086   -0.90772686048837
H          -0.72537474243458   -0.30518238153221    0.21298465027038
O          -1.19673525750462    3.00866589603117    0.81550209968018
H          -1.30102474961788    2.77168995027603   -0.15653831222694
H          -1.70897603957312    2.35970733715484    1.30556138870585
H           0.22438303728429    2.57433028841396    1.07592673341181
N          -1.21540954495451    2.10975461500480   -1.66071156145978
H          -1.84528445286124    1.33569777804038   -1.83525148333356
H          -0.27504917102418    1.72182959211101   -1.58782211370669
H          -1.24232301554707    2.72402880221390   -2.46430391632305
