    23
        -45.36140454  Gyration_radius:  2.48244565607 Dipole_moment: 3.036
 S          -0.25215740280320    1.32226059721407   -0.43663868403368
O           0.68554763503009    0.62651426736191   -1.28160437232620
O          -0.98219596418799    0.25827034330806    0.43501892825454
O           0.32107907309376    2.33113941738237    0.39803495034040
O          -1.39166099588316    1.92885760924601   -1.24810928491478
O           2.15212451140245   -0.80031712654169    2.58687976926751
H           1.82920833474105   -1.18353498877627    3.40412137464619
O          -2.85779246386965   -0.07452618105915   -1.72161729226073
H          -2.16007987090060   -0.71961606493047   -2.05180078698659
H          -3.06368916946090   -0.34019918278975   -0.82122232310496
H          -2.03607867708342    1.17427672351069   -1.51881642460610
O           1.52258541961141    1.78945829380073    2.71062053500271
H           1.96471068519333    0.16499327196024    2.64761101857923
H           2.23105922987612    2.43439987174432    2.75707566976717
H           1.01353903478394    2.01561207972008    1.90584155291559
O           0.83260154046178   -1.49314141824233    0.41020668753119
H          -0.34101076455104   -0.53473837368408    0.51501863950776
H           1.25912926383995   -0.98089355346552   -0.29155880360982
H           1.37291566359804   -1.33681989063074    1.22668529860548
N          -0.78360910246963   -1.56096767660223   -2.37604047851955
H          -0.63884751573624   -1.91500596432523   -3.31278554719577
H          -0.55882656757153   -2.30118615850415   -1.72191772952140
H          -0.11855189710635   -0.80483589569907   -2.21500269733591
