    23
        -45.36401755  Gyration_radius:  2.40182021261 Dipole_moment: 1.950
 S           0.67425879980245   -1.13864104047065    0.37410080411867
O           0.08890633622497   -0.05750034238100    1.31158712648921
O          -0.05082190531637   -0.87303848296150   -0.97314019572700
O           2.06899487952775   -0.88213699260464    0.16945010972703
O           0.28952718272001   -2.41371270058781    0.88092850910114
O           0.49859575126944    1.63189689604081   -2.11691966059767
H           0.20492373006747    0.71821554524736   -2.00141296565789
O          -2.08509555555203   -2.18248527092514   -0.37479974787461
H          -2.53596071199596   -1.56943310076066    0.26979852764623
H          -0.95145163690865   -1.38230645358123   -0.87242916430851
H          -1.51752470463966   -2.75196609716641    0.16585523680150
O           0.81676948964455    2.18804057034661    0.44318843946311
H           0.39283924587342    0.88597376601905    1.00303430014250
H           1.78036024979982    2.16203136409746    0.35980698797829
H           0.50398972119772    2.16404616550516   -0.49681757750332
O           3.04330684566847    1.28335910258296   -0.99529394534614
H           2.74665904067928    0.43891062778460   -0.59356188951135
H           1.46621089773696    1.59674222232128   -2.14512234659278
H           3.98088594462167    1.18179607626522   -1.16399296409920
N          -2.86097427436844   -0.43598513157806    1.49137720119298
H          -1.90370722787550   -0.19179597297397    1.72999661539603
H          -3.31377758602317   -0.78275762375333    2.32750160823464
H          -3.33691453214525    0.41074687352612    1.20686500088385
