    23
        -45.36293463  Gyration_radius:  2.4837721235 Dipole_moment: 1.869
 S          -0.55748359485459    0.65227179611737   -0.55556420340592
O           0.93279230320171    0.68583143546020   -0.14483898570917
O          -1.27920695638509    1.46258808037502    0.38719588066380
O          -0.69031896969350    0.98730089052091   -1.93570636392178
O          -0.94415859842639   -0.83226692156385   -0.36412080309851
O          -0.12892787823560   -0.41337571188312    3.52600473652336
H          -0.30828217085811   -0.27601567011756    4.45750550984755
O          -2.14405739997472   -0.68613440612514    1.83299614285526
H          -2.31452711429493    0.25283399708885    1.67942234652272
H          -1.45594684206316   -0.90525504213439    0.53062385629952
H          -1.42601828755612   -0.72050060067217    2.51510548864188
O           0.49472043465898    1.90501001452505    2.36801614262355
H           1.30781609237557    1.80139026534482    1.86651339389932
H          -0.21137107348461    1.91200969287955    1.69546336849128
H           0.18383931272934    0.45319222558475    3.17196448468659
O           1.71669915826137   -1.37425943453707   -1.36325584707988
H           1.50908692035027   -1.13736737629609   -2.31835115017706
H           1.37149809099343   -0.11248950701123   -0.62245474948114
H           1.01631632221032   -1.96933582717963   -1.07949285872158
N           0.87487181968271   -0.56583825094606   -3.72783767254425
H           0.22061542086090    0.07494121054781   -3.27540851655158
H           0.34115354159428   -1.17892976122095   -4.33108471694938
H           1.49088947889624   -0.01560111876141   -4.31269550342236
