    23
        -45.36293460  Gyration_radius:  2.48383702584 Dipole_moment: 1.870
 S           0.05098327942677    0.71045869851833   -0.73293366324095
O           0.01809255654961    0.73281932763646   -2.15881569298326
O           0.04456086960716    1.97959700649963   -0.05796597012096
O          -1.14489242867528   -0.10542945243869   -0.18970532371349
O           1.27777345190928   -0.11197008439389   -0.27609402904238
O           0.16899116392022    0.56635210531967    3.50415486769193
H           0.16936405616987    0.99138712633938    4.36323441354643
O          -1.71450415025621    1.64445091366415    1.95669457455758
H          -2.24990910564900    0.94475392868402    1.57312122307051
H          -0.60094323590089    0.93718981375134    3.01043509305538
H          -1.13637011820632    1.94055874075465    1.22935014782736
O           1.99131995281494    1.24364258031998    1.70913200214075
H           1.67016953413583    0.35553586412115    0.55772927934368
H           1.53740073004950    2.01608235670673    1.34632138740277
H           1.42092090293109    0.92183619527209    2.45287136149779
O          -0.38031173054513   -2.40766360382664   -0.86545203495826
H          -0.32053469493412   -2.31611882964483   -1.86531495846828
H           0.52251172196679   -2.34728143049717   -0.53916363092714
H          -0.95228352385481   -1.08381475712069   -0.44270134467200
N          -0.12127135026501   -1.80916508874467   -3.42013333963202
H          -0.04227542786415   -0.81954032026682   -3.17973322662376
H          -0.91708669579618   -1.91418919965947   -4.03654451750466
H           0.70829425248070   -2.06949192102831   -3.93848660828161
