    23
        -45.36399007  Gyration_radius:  2.4158310782 Dipole_moment: 2.004
 S           0.40872079014489    0.70004118548796    0.74553449201487
O          -0.39089215095941    1.88992449120406    0.73586074887262
O           1.03481012557916    0.48106492450137   -0.64251429442194
O           1.44541354543219    0.61157988414808    1.72150428435473
O          -0.56980774945837   -0.49356922592150    0.91160019171980
O          -2.70100613252581   -0.51922163287612   -0.93734504163980
H          -2.15194840446296   -0.71266146615355   -0.16629866031053
O          -0.82329985295768    0.72663418682784   -2.32804661609592
H           0.31202998206105    0.59220419068395   -1.37172993403165
H          -1.49457158571791    0.06982867082166   -2.01828761186845
H          -1.24840947249662    1.57959881085310   -2.16084984207634
O          -2.54473180427167    2.27605572617173   -0.74563938167495
H          -2.98418189863026    3.08958159652092   -0.49518342490905
H          -3.05361855884563    0.37164682539563   -0.79561373739760
H          -1.77966444476214    2.18139204680327   -0.13865218571567
O           0.91035252525914   -2.43533804829039    1.52931211373560
H           1.76697192882971   -2.16612586840891    1.07224583431926
H           1.06953944858863   -2.32344025766142    2.46974118212088
H          -0.01286708308071   -1.32803510143262    1.14820945300253
N           3.04738363934444   -1.35461360941325    0.45283181661340
H           4.02099136287118   -1.54937951570762    0.64973854263220
H           2.79021562611904   -0.47972789604249    0.90739384861523
H           2.94857016382640   -1.20743992766634   -0.54381175784691
