    23
        -45.36140449  Gyration_radius:  2.482234191 Dipole_moment: 3.035
 S          -0.36044893972151    0.74603620594111   -1.14684717569612
O          -0.68257197762929    1.42911620683649    0.08057383453541
O           0.75219433750717    1.28534288243625   -1.86400143938200
O          -0.09908573561926   -0.74950321202452   -0.80055824914180
O          -1.56694595064194    0.66816800099511   -2.07599802518833
O           3.21779998762259   -0.17236002346303    1.25573033732435
H           3.71115605011685   -0.99439022660347    1.25070271312090
O           3.28103454023818    0.71567816593851   -1.25943928789458
H           3.75037102510286    1.53076645081083   -1.44767530576218
H           3.27769021607656    0.18442417840601    0.33925197243768
H           2.35871098174952    0.87070547493177   -1.54801007015987
O           0.61299020427784   -0.41572340350067    1.59621632472253
H           0.20935637540031   -0.76773833454661    0.17441255491988
H           1.60194430166619   -0.34811155201807    1.57861302091501
H           0.28422526227263    0.49169078461795    1.52397181355649
O          -2.92930860447493   -1.20136954220258   -1.05743332193107
H          -2.29191208191978   -1.91805259110630   -1.11912107917978
H          -2.92666541845403   -0.90604172504886   -0.09589423471919
H          -2.20539830172909   -0.05581660675594   -1.72144699716949
N          -2.59486591117361   -0.24694803314592    1.37536306520722
H          -2.04058903922428    0.54509119845186    1.05068751216160
H          -1.99910937667488   -0.80119243501328    1.97885641995980
H          -3.36057193477352    0.11022811605359    1.93204560735378
