    23
        -45.36514199  Gyration_radius:  2.28511713098 Dipole_moment: 7.090
 S          -1.03451765749908    0.62238372616659   -1.53008137393288
O           0.05928795610078   -0.32257494012762   -1.90964386900200
O          -0.61036009465052    1.33077302773522   -0.31381008077614
O          -1.42497103697522    1.48330706888556   -2.59080851247435
O          -2.24301173486267   -0.28379849829044   -1.11028076979644
O           0.16873115020236   -1.06826548542227    2.16547149700426
H           0.15978167253213   -1.47569468234977    3.03254195653742
O          -1.97061601355034    0.40076300533531    1.72149942074956
H          -1.54201461938867    0.88715036320408    0.97892887435417
H          -2.74280737988992   -0.01743532667715    1.33326414141430
H          -0.66009780499794   -0.52162278638801    2.10494494333598
O           1.55156240391117    1.08096853618177    1.17168745922039
H           1.27804665800187    0.27045349536699    1.63917194194462
H           2.15031659860769    0.80587100263708   -0.20075468079438
H           0.71536260793803    1.40516847892761    0.77097054836909
O          -0.70599755964642   -2.19771792923556   -0.21040012398732
H          -1.82347216059276   -1.09466268191870   -0.72952860767134
H          -0.17446710615862   -1.77476565359240   -0.90672106033494
H          -0.31411704580666   -1.93030164489067    0.63904980361405
N           2.30370991735679    0.64338335603237   -1.26289681596968
H           2.45306133326540    1.53209665623224   -1.73001805847942
H           1.33624653260186    0.21858134248985   -1.61106317644527
H           3.07034336350138    0.00593955969789   -1.45152344687976
