    23
        -45.36401756  Gyration_radius:  2.40255758215 Dipole_moment: 1.945
 S           0.37684536507654    0.85077538782577    1.00717053284505
O           1.09442503510331    0.64069051690668   -0.34605939685304
O           1.36187305106940    0.81626959419231    2.03630256297338
O          -0.47194122530916    2.00172519501682    0.91847926916062
O          -0.54055244818515   -0.39694429619579    1.12165404982200
O          -2.51506204360715   -0.57506589857952   -0.86764264473161
H          -2.01197845677769   -0.72248463207135   -0.05552552534410
O          -0.64301361718734    0.76260434224454   -2.16064339920414
H          -1.11833735464368    1.59733494181803   -2.04430283231605
H           0.41346440246172    0.71423091864782   -1.12625333998355
H          -1.30131789096231    0.08119258793530   -1.87049488765542
O           1.23701537110574   -1.87675317752705    2.05055366850986
H           1.62686921250175   -1.09176725614932    2.46346606582310
H           0.08521890346495   -1.12717553002532    1.51597694607446
H           1.79336299161928   -2.05431798423639    1.24224470643488
O          -2.54248754172606    2.22402040464002   -0.71192622138463
H          -1.81583327759259    2.18979475846896   -0.05371146645885
H          -3.05157890392448    3.00858338469847   -0.50447876003619
H          -2.94280508484834    0.28736794137847   -0.76063389711897
N           2.63210303066756   -1.90960857125861   -0.22726436671143
H           2.34805086350762   -0.96480586608012   -0.47147177401092
H           2.34281143916224   -2.52530837672102   -0.97673145105404
H           3.64286816909987   -1.93035838488940   -0.17870786888924
