    23
        -45.36399016  Gyration_radius:  2.41622722662 Dipole_moment: 2.016
 S          -0.14779970107315    1.03795518996678   -0.32847192085577
O          -1.20410140034866    1.98443722245515   -0.17500124345574
O           1.06107497569352    1.49133923953874   -0.95175638930819
O           0.25162294354462    0.46969447613765    1.05971082383682
O          -0.70065362238813   -0.18071850738947   -1.08730783320824
O           2.33144912037851   -1.43481531381876    0.97905507903108
H           1.69335487163981   -0.78437227682551    1.30024950661751
O           1.22266952909485   -1.77998404967506   -1.40084358664657
H           1.54815204832615   -1.92130943983597   -0.47789058385824
H           0.05921476626288   -0.85874417759329   -1.25785310962828
H           1.94019320560504   -1.28409028270852   -1.81969045716208
O           3.29431947962409    0.09533870848685   -1.16871240363481
H           4.00098974000931    0.64223167921533   -1.51386696808327
H           2.51216939137474    0.68174631478412   -1.08465114422638
H           2.99965166868331   -0.93264777201334    0.48988783488218
O          -1.92973219211596    0.27666621204221    2.30289635483885
H          -2.10141142876151    1.16692596683504    2.61948829163495
H          -2.56736185581298    0.13066341174197    1.53652640959510
H          -0.61161787053857    0.35028262732394    1.61050805245069
N          -3.36196916422054    0.16553048588353    0.10504927404986
H          -4.34324937173747    0.38037817902696   -0.01978254205978
H          -3.13832557231185   -0.63979595062073   -0.46607616740473
H          -2.80863957098948    0.94328805704246   -0.25146727739198
