    23
        -45.36293461  Gyration_radius:  2.4835935694 Dipole_moment: 1.869
 S          -0.00584214876637    0.60751995198064   -0.82242432638262
O          -0.17704273436551   -0.92636898118859   -0.91169369509474
O           0.93493329763617    1.02316346794931   -1.81074108246322
O          -1.29774487537759    1.23746573220057   -0.84249059577159
O           0.58574879812464    0.81626992638113    0.59091711408013
O          -2.75615830364663   -0.69061003857800    2.13275252983258
H          -3.60870836302952   -0.64896850418741    2.56874054766879
O          -1.80907893957935    1.77128782737279    1.74976174670179
H          -2.41445947967448    0.23477191106345    2.10079817943712
H          -0.90557680386637    1.81791413821779    2.07366290275710
H          -1.72203327235187    1.73107344690619    0.77932088983661
O           2.30844278823338   -1.02033529210707    0.56351642466527
H           1.74429219160052   -1.72442341061057    0.23004485811136
H           2.88961073940497   -0.74159608698528   -0.20859737672438
H           1.34020537697717    0.12289698348001    0.68207000617518
O          -2.63958475770701   -1.11238553518639   -0.47680228576376
H          -2.76094099248496   -0.19722153515982   -0.76324199080395
H          -1.17498890850710   -1.13640604173485   -0.74434819130254
H          -2.72322673604820   -1.09794836276544    0.51053982799289
N           3.51355548742549   -0.15410814869131   -1.61583745372185
H           4.26334964378412    0.52048631349217   -1.53202349110379
H           2.66739209488792    0.35242852210230   -1.88187943986666
H           3.74785590734111   -0.78490626394502   -2.37204509819363
