    23
        -45.36514199  Gyration_radius:  2.28512271341 Dipole_moment: 7.091
 S          -0.83884794431466    1.09531116075891   -1.37698756445789
O          -0.88706384910126   -0.36658429774261   -1.68350141580775
O          -2.06844004222871    1.36756275837691   -0.44325504678384
O           0.35894680909192    1.34098426593285   -0.56092127080053
O          -0.92406505559565    1.91418516661651   -2.53498778503424
O           0.21678880154436   -0.74266989775110    2.29334214041646
H           0.26691615539962   -0.97079742107848    3.22250657927793
O          -0.38193706950220    1.79236624321599    1.90991351483584
H          -0.05922084888038    1.77786374359914    0.97860349704918
H          -1.30703886068052    2.04227282147742    1.84970897027528
H           0.01157593184738    0.22988412335567    2.25495275253105
O           2.16390058358301   -0.31473310875941    0.41071418049624
H           1.62636991334069   -0.65028212164095    1.15151691752690
H           1.86138283885786   -1.01035020030909   -0.90929926204188
H           1.68068421009816    0.49189368961131    0.12660686677337
O          -1.98612565486311   -1.01410719008857    0.63214311645672
H          -2.18524644379281    0.52605305900929    0.06335406876018
H          -1.62065306969909   -1.14427497348782   -0.25993656627865
H          -1.23645193468550   -1.06825426766136    1.24996130588697
N           1.45785867997562   -1.29007110352712   -1.87728141258205
H           0.41566601062179   -0.90144215479751   -1.85530045074445
H           1.46935511925777   -2.29354865950409   -2.02752097973635
H           1.96564572972321   -0.81126161560600   -2.61433216601839
