    23
        -45.36140465  Gyration_radius:  2.48253980038 Dipole_moment: 3.038
 S           0.30324456493725    1.25022020563247    0.58886259082403
O           0.48529297253904    1.25308548655294   -0.84082210176389
O           1.51242563626080    1.25559378499169    1.35110654087668
O          -0.58142378412129    2.40651314268998    1.04165766691620
O          -0.55317467088170    0.00178568087362    0.95354798122994
O           2.15634161165599   -2.70612408718638   -0.00280828648350
H           1.94905855661760   -3.51066003038200    0.47556191132411
O           2.92280738292701   -0.94602579829921    1.85023716526167
H           2.48510195730217   -2.06735684252751    0.67144017137521
H           3.83206920088613   -0.64057829840332    1.84542731388149
H           2.37488447546307   -0.14151029604118    1.74737956100671
O          -2.90006302961144    1.59048508191267    0.45398248656646
H          -2.73753223444576    1.28923909027733   -0.49194405015229
H          -2.93031837078704    0.79184987870147    0.98782517700574
H          -1.55797675932061    2.17841592928705    0.81310064483219
O           0.08661252881341   -1.42781275023471   -1.02347676014874
H           0.85027746916036   -1.98391336636744   -0.72244720873190
H          -0.38501636447915   -0.68591196463477    0.21522863784439
H           0.47614123508936   -0.63454469098342   -1.41809311222666
N          -2.10985445017163    0.75400224210009   -1.91581165842062
H          -1.14850935376496    1.05999840386130   -1.76673578354168
H          -2.44206350404120    1.16512178525948   -2.77862071227224
H          -2.08832507004069   -0.25187257708905   -2.03459814520105
