    23
        -45.36140457  Gyration_radius:  2.48271385233 Dipole_moment: 3.035
 S          -0.76889484648331    0.58515597893065    1.03304019603641
O           0.22682164815977    1.48304691680006    0.50430227440799
O          -0.68169055102362    0.48631351494399    2.55199977606907
O          -2.11438471982448    0.88752372702444    0.65717722947987
O          -0.39654172872208   -0.85576585938534    0.57496354331186
O          -1.07798894686461   -0.30200238990114   -3.27389720303532
H          -1.24293359584682   -1.16067161097407   -3.66703545881271
O          -3.16522935264596    0.16930253409283   -1.68036925061222
H          -2.82262222651344    0.36909361083944   -0.78560334608714
H          -3.75662152734984    0.89275461414234   -1.89685061658675
H          -1.86835273669990   -0.10117416815477   -2.72097879239385
O           0.87910145249420   -0.22240768021663   -1.50668696916485
H           0.86518154222726    0.69098420819346   -1.18694174868792
H           0.13890796363268   -0.75121151798201   -0.29028034336820
H           0.22396272996565   -0.25957093733686   -2.24994136918038
O           1.30119734435537   -1.04334749838594    2.89157308587969
H           1.96318250306666   -0.60055828558964    2.27691319532098
H           0.12750841613775   -0.10066327272922    2.79410052669041
H           0.98473535817822   -1.82316777904543    2.42741409541106
N           2.72915908119857    0.24498171301124    1.09143575124744
H           3.56489969905286    0.76478792107962    1.32626859468890
H           1.98362960489558    0.91238537411039    0.89461817515268
H           2.90697289860914   -0.26578910346144    0.23477865423413
