    23
        -45.36293459  Gyration_radius:  2.48405538372 Dipole_moment: 1.871
 S           0.00956301262174   -0.60528321742089    0.82320334456716
O           0.25433440319669   -0.45112174571968    2.21996853919772
O          -0.45430780015359   -1.89085755421930    0.37775454001558
O          -1.02071383446584    0.44525303016600    0.34833422773360
O           1.29054188778742   -0.22057047799823    0.04792609850126
O          -0.67928213412915   -0.99544541580764   -3.34336857477431
H          -0.95719513885039   -1.50095994183389   -4.10880704433333
O           0.42378057225537    2.50227718290412    0.50509217966780
H          -0.53901309227620    1.35243021461789    0.40332623882483
H           0.65777381491256    2.51321406101881    1.48315409460756
H           1.19738332879701    2.15468067828824    0.05136985916030
O           1.22731352957750   -1.94394234503044   -1.77270693577525
H           1.37752593566426   -0.87341454431796   -0.74831058091338
H           0.67230228839932   -2.51009289795294   -1.21978176391615
H           0.62260235906394   -1.56371040331633   -2.45952958505274
O          -2.43177264863897   -1.31079501856398   -1.35994246940136
H          -1.81664101192803   -1.67097491100258   -0.69449114427709
H          -2.68333672586216   -0.44885526773768   -1.01768871119688
H          -1.40524719657247   -1.07389954186185   -2.67938397411806
N           1.03143432165296    2.15381987313939    3.04724264250661
H           0.80269252088877    1.16169467473723    2.96546474106115
H           0.43251052044642    2.55077426322252    3.75998545778591
H           1.98775107761585    2.22577931469185    3.37118883012933
