    23
        -45.36401757  Gyration_radius:  2.40196101314 Dipole_moment: 1.946
 S           0.90069631770208   -0.33261349335039    0.98250971238589
O          -0.64916844511196   -0.35598506777941    1.07765167221499
O           1.42951476796651   -1.55506506937051    1.48900666894953
O           1.16225317399267   -0.29567369498265   -0.54085530912578
O           1.34892133061438    0.89536441563981    1.56915797689595
O          -1.91304843494276    1.93267487624834    0.05319680500201
H          -1.75200375157545    1.10456523017604    0.52513361216819
O           0.35076900386699    3.27996081914617    1.01083506508311
H          -1.45843348951758    2.61975940520262    0.56262636703678
H           0.73643620930032    2.42339639410251    1.29384615822867
H           0.68775341530369    3.93724248863033    1.62104511958930
O          -0.83881149975261   -2.82153397186477    0.76699536348011
H          -0.88723380589525   -1.36176207924498    0.96659291122659
H          -0.65188178093264   -2.91557548614329   -0.20815244251937
H           0.02181531847365   -2.90889487446952    1.20326672923646
O           0.27674000060927    1.88855962148745   -1.41888583012424
H           0.68119953273253    2.59201049861402   -0.89192313036327
H           0.83674213183906    0.60681496744494   -0.93755292689096
H          -0.66330410624320    1.87822664972119   -1.10544756770814
N          -0.03324717378651   -2.72823053661874   -1.77785082515668
H           0.53217473468214   -3.48613601398169   -2.13881546829696
H           0.57738329251686   -1.93409199256063   -1.60633668443450
H          -0.69526674183780   -2.46301308608128   -2.49604399689747
