    23
        -45.36293454  Gyration_radius:  2.48423036495 Dipole_moment: 1.868
 S          -0.18890009719615    0.88515382675639   -0.47368744785133
O          -1.30581931197487   -0.10463234587001   -0.07035721019680
O          -0.06702601722344    1.90745027015058    0.52944862972728
O           1.09151050755648    0.02077188701427   -0.40712583637633
O          -0.41778263931388    1.31446563012472   -1.81458787894400
O           0.47168553141134   -0.46657388318011    3.49273526806074
H           0.62586216032251   -0.30445247269159    4.42472331646729
O          -1.65237251678433    0.58424729287145    2.31565012158646
H          -1.27740171319616    1.45351474404068    2.12035181924300
H          -1.54167473187616    0.08155273235981    0.91836226395111
H          -0.95367609502491    0.09837831648747    2.82334220035318
O           2.03298062974803    1.11671705194254    2.02308965866989
H           1.13582245298611    0.07432218039376    3.00241079317503
H           2.49329887381686    0.58780884597664    1.36605796790991
H           1.32984642419984    1.57313942432261    1.52488085437621
O           0.23093744152507   -2.03357507747227   -1.58237194339766
H          -0.01136868500500   -1.66443770657724   -2.48600316336010
H           0.86244880797787   -0.85398931498150   -0.89746176433863
H          -0.59722594926030   -2.12243615188366   -1.10128783831597
N          -0.49561242235830   -0.74825938337907   -3.76704616678737
H          -1.40425429860487   -0.89895815385179   -4.18688221611597
H           0.17456912856831   -0.62529267533057   -4.51542028525927
H          -0.53584749028996    0.12508496274079   -3.23882113254416
