    23
        -45.36293393  Gyration_radius:  2.48535604371 Dipole_moment: 1.863
 S           0.52222211543423    0.86257769187465    0.14285057235975
O           1.03728573357835    1.23491992215292   -1.14642505721028
O          -1.02257953263345    0.82772547743076    0.09264692672963
O           0.90240700151878   -0.61743375223336    0.37983959121782
O           0.92772466764613    1.65401674692418    1.25806424300724
O          -0.72815526731384   -1.53007729174738   -3.13104003556364
H          -0.71690896112330   -1.75223568611897   -4.06342553729221
O          -0.77189938381015   -1.15912586913182    2.18133713529295
H          -1.54665639647616   -0.77780106643386    1.75765203417866
H           0.28853338983588   -0.94448344584105    1.13760692217485
H          -0.50664965983764   -0.51447296587544    2.90619784725435
O          -1.37457731133415    0.92566503373737   -2.38815417990752
H          -1.29978576007451    0.86104856497688   -0.90230959935980
H          -0.50258973405221    1.32845660026761   -2.49664812086689
H          -1.27770209151994   -0.01105066828471   -2.69707169465471
O           1.75858377581102   -1.10734005914189   -2.26952821021712
H           1.63815256437205   -0.19050334993206   -1.95999592050314
H           1.90818034262060   -1.61727507586527   -1.46902297090975
H           0.21539799050312   -1.47665256427268   -2.84636128286959
N           0.01705678018698    0.76747361600909    3.80004822822082
H           0.41864357988605    1.26806068377100    3.00545967082738
H           0.76325175967516    0.58607895625859    4.45928065636123
H          -0.64993560292699    1.38242852165138    4.24899876179284
