    23
        -45.36140454  Gyration_radius:  2.48274726774 Dipole_moment: 3.032
 S          -0.20059744278607    0.66436342135871   -1.23189307530859
O           0.58798982840171    0.14784212597030   -2.30636351597126
O          -0.87109670175400   -0.50410740876682   -0.45072080840048
O           0.52150017970718    1.46951675288294   -0.27929163914922
O          -1.39825174261398    1.41515069170376   -1.80346265142242
O           2.46432352030783   -2.36780066727356    0.53445244141532
H           2.24480634140429   -3.28384756908816    0.71255457353571
O          -3.09446778459552    1.24982931744997    0.06298712583182
H          -3.17494095765284    0.29400433315459    0.12311146460746
H          -2.51988221349074    1.53210478482767    0.83877525410865
H          -2.14256875891258    1.42980942931023   -1.09396058002450
O           2.09032483066570   -2.03855318893016   -2.08685789773470
H           2.85069385342632   -1.84970556406532   -2.64034934167593
H           2.37383772061297   -2.25243743689871   -0.43980383095973
H           1.48106474776422   -1.28265594673613   -2.21087841758789
O           0.75557683253616   -0.59135890251581    1.47507876386068
H           1.43235371112858   -1.27261199752975    1.22838978421871
H           1.10614918954908    0.25512110377031    1.16324418647077
H          -0.29759740499054   -0.65718155444566    0.38220007766170
N          -1.29417213445527    1.86254541319587    1.88651760969547
H          -1.03302109744393    1.10625539964351    2.50794800128132
H          -1.33479476650581    2.71538273178462    2.42950121700564
H          -0.54722974029294    1.95833473121033    1.19882122853556
