    23
        -45.36293465  Gyration_radius:  2.48394898279 Dipole_moment: 1.873
 S          -0.21122868910375   -0.16058897217799   -0.98737477559314
O          -1.11197774872345   -0.22522958355066    0.26773703285427
O           0.22033004424834   -1.50161553395881   -1.27312473764655
O          -0.88086229092923    0.54288626112786   -2.03200090250836
O           0.99580958992412    0.68146955354330   -0.51414686662854
O           1.78850008432907   -2.18523385844123    2.15852329440163
H           2.22100388956041   -2.95917566049301    2.52274041363026
O          -0.46661246639747   -2.89741339256210    0.92825812714750
H          -1.18716386814116   -2.34255958779230    1.23862191841674
H          -0.25083472485329   -2.55038638121307    0.04286417461385
H           0.92210670054868   -2.49328483666016    1.80011205671894
O           2.66530954955736   -1.14582757582756   -0.11154134675500
H           2.46122775438627   -1.47873570018442    0.79927246658812
H           2.18021665999350   -1.72333395821786   -0.71614671559940
H           1.76855735388519    0.02668801219847   -0.30989314936784
O          -0.98105621466185    2.19154584101320    0.96353021375387
H          -0.02725443058620    2.29640460799058    0.89693390670482
H          -1.36766302806363    2.65530566680944    0.15914420189356
H          -1.15832718180414    0.73733231262317    0.62766739739927
N          -1.83589990935227    3.12982225670778   -1.34757644821484
H          -2.82982884691996    3.24901253983884   -1.49677776918998
H          -1.55474024953300    2.26047207387213   -1.80423559891346
H          -1.35961196739750    3.89244592536339   -1.81258690371715
