    23
        -45.36399013  Gyration_radius:  2.41591536734 Dipole_moment: 2.002
 S          -0.61565450790239   -0.57516874665815   -0.70698756092544
O          -1.49230109467402    0.33353458997547   -1.38604516914880
O          -0.76523519884656   -1.96620908203752   -0.98583522173326
O           0.84835164563180   -0.18581017555630   -0.97436600574008
O          -0.80230810020875   -0.32310771443657    0.81344445714485
O          -0.53032467075524    2.37783317637778    1.58126727136780
H          -0.74525773373815    1.43597584793639    1.59431258280668
O           1.03737060861340    2.29181522868625   -0.55088115753622
H           0.35553862536450    2.72475668995372   -1.08381543926845
H           0.70042708020098    2.38487193946254    0.37415857646220
H           0.97107384805061    0.82986972559942   -0.83305979978174
O           0.26872918468758   -2.32036398859592    1.91186974165780
H          -0.36233259645913   -1.10651001724238    1.31857361385700
H          -0.39839037064973   -3.00885291526405    1.85495267994670
H           0.96600333847175   -2.55711794526310    1.22421793523416
O          -1.66660299580484    2.92999392814645   -0.92602922602636
H          -2.39940671085075    3.31001516787488   -1.41209809585673
H          -1.68268156611703    1.96769166664233   -1.11686609428012
H          -1.16837545940217    2.78800775041760    0.97914717470210
N           1.80275457525347   -2.83745232450378   -0.15541977465856
H           2.25033753846707   -3.70925561564959   -0.40886400753477
H           2.44240636954351   -2.08057719817520   -0.36209402116492
H           0.98587818051393   -2.70394000766966   -0.74958246950265
