    23
        -45.36293467  Gyration_radius:  2.48377059848 Dipole_moment: 1.872
 S           0.63879501583813    0.32449247725866   -0.72971536598765
O           0.64332845429435    0.37777297720818   -2.15507839028893
O           1.72840112377057    0.96729409393347   -0.04715135145632
O          -0.67148152173514    0.93640026492169   -0.18235775042874
O           0.55127398676730   -1.15405791604312   -0.28690060324349
O           0.56954170064724    0.10998461485526    3.50569630397308
H           0.93612208517950    0.31694707718926    4.36679986676115
O          -2.26853403159222   -0.88316899162714   -0.87599396878620
H          -2.15651602024509   -0.88133847546491   -1.87548325541404
H          -1.76107781417990   -1.63409167184839   -0.55390362370517
H          -1.41705675286334    0.27709435167841   -0.44219177400261
O           0.54490455162937    2.29458026984799    1.97853348496981
H           1.09417280786039    1.95334488023343    1.24860129410730
H          -0.32918798825720    2.40473220508351    1.59488572074047
H           0.49905266804583    0.96622926183492    3.01999779956568
O           2.07905236779205   -1.10045481651272    1.70077808134569
H           2.51490627870588   -0.31412197135140    1.34568787506349
H           1.51163414285332   -0.77890621253343    2.44697558567520
H           1.15209692815873   -1.26330168244015    0.54670623570342
N          -1.61418534405928   -0.78626735294115   -3.42850966553093
H          -0.72233524587903   -0.35295652238237   -3.18318405533645
H          -2.10724568025920   -0.15041876834479   -4.04248440255125
H          -1.41566171244908   -1.62978811253938   -3.95170804117288
