    23
        -45.36293459  Gyration_radius:  2.48371456629 Dipole_moment: 1.870
 S          -0.16244912883441    0.80370869177339   -0.61037691081932
O          -0.45044419921038    1.91160898603583    0.25908962670896
O          -1.09139768261685   -0.36053429700715   -0.19512827984195
O          -0.26837896069044    1.03489523309954   -2.01398403553503
O           1.25031359120446    0.25728146499350   -0.30100018425286
O           0.19394228725413    0.04915440719868    3.54785562914922
H           0.13045014758300    0.32403998091830    4.46385823519515
O          -1.97129552998485    0.83882408662161    2.20893858581227
H          -2.33394941235839    0.09357821175264    1.72266217469276
H          -0.66705568668993    0.28399443278305    3.12641321980879
H          -1.52090631854614    1.37922441310204    1.53362192229216
O           1.70176800419392    1.43066849041406    1.86855882940518
H           1.05328482562995    2.10933238673655    1.63781185216540
H           1.26597120596580    0.86570183999144    2.55627157266328
H           1.55490271722162    0.67632566541327    0.59314460110912
O           0.18668811351147   -2.26440163519056   -1.23569755027206
H           0.17339009152521   -2.00930308071231   -2.20853244199919
H           1.06097075257790   -2.02828681611240   -0.91154753450189
H          -0.67452481151291   -1.20829476110118   -0.60251181528709
N           0.16457914685150   -1.23722189744233   -3.66384714188351
H           0.00796820665299   -0.30825288085641   -3.26900629750883
H          -0.60993238123439   -1.44432267132509   -4.28155466339707
H           1.00610501147351   -1.19772025109585   -4.22503940373067
