    23
        -45.35981436  Gyration_radius:  2.32612419272 Dipole_moment: 5.669
 S           0.25895583764857    2.12879400372841   -0.10578361184517
O           1.42265351281572    1.31177148961948    0.14988700106870
O          -0.61040140693933    2.12392923785366    1.18488112180664
O           0.48228245693569    3.43951281747758   -0.58415177464953
O          -0.65427556833321    1.37203657953931   -1.11483654164615
O          -0.17114637299564   -1.72172888291898    1.45188613594208
H          -0.20274343116322   -2.64846789904288    1.69154453995787
O          -2.06268736090700   -0.19299538175082    0.35483349929981
H          -1.44543123503334   -0.83538589806731    0.77295959281692
H          -2.33802239435900    0.41576382191154    1.04594923101956
H          -1.22921038586603    0.72332556698278   -0.59881729451487
O           1.47311698980879   -1.31927388781498   -0.46896589342105
H           0.50092105098770   -1.64201645432036    0.69578914732848
H           0.99012537394021   -1.35400767816046   -1.32825735491918
H           1.64831207958756   -0.37289038893361   -0.31901806940977
O           0.75635443509628    0.53956418867281    2.63175476771833
H           1.50872170540464    0.68883337947562    2.04120180997958
H          -0.12451067635610    1.55048247735856    1.86749059235168
H           0.41697516792364   -0.34812280481513    2.40091902400865
N           0.00158616735255   -1.06526611392090   -2.74275625788705
H          -0.86058151592924   -1.58875703763124   -2.82854783542031
H           0.48288898628956   -1.10905645102213   -3.63206186793362
H          -0.24388342590918   -0.09604469422195   -2.56589995165334
