    23
        -45.36293467  Gyration_radius:  2.48376792506 Dipole_moment: 1.873
 S          -0.34011925041948    0.00060671757909   -0.96497135334862
O           0.20176000015565    1.14615442204304   -0.07913459415675
O          -1.77460435504693    0.03657216912794   -0.88010620051930
O           0.23573684908784    0.07774741379541   -2.26767565941699
O           0.18796535303989   -1.27091914397941   -0.26171880042573
O          -1.98497450985702   -0.25045761846633    2.93767932645413
H          -2.73258612710072   -0.26104827096796    3.53751244841059
O          -2.27071326987386    1.72014734800824    1.16571111794130
H          -2.09622083762464    0.54819051118677    2.36855413224908
H          -1.46207751579077    2.23819244577033    1.13253180617473
H          -2.24931219415815    1.17620137134791    0.35661457134712
O           2.55734907925400    0.31345630747863    0.23562506098588
H           1.19161368085967    0.92318900848951    0.09114399464286
H           2.34624737809828   -0.59517292868693    0.47010824829857
H           2.89037575805408    0.28441659361318   -0.71299999538853
O          -1.88859022651460   -1.99003765730307    0.94627625269542
H          -2.42855745995534   -1.49623609121843    0.31469879692924
H          -0.59356997063978   -1.66930142663463    0.28412612220723
H          -1.89471649037320   -1.45511013813889    1.78055223282825
N           3.07506917747726    0.14672227962310   -2.34430559047803
H           2.07401812572993    0.10159456865918   -2.54241020717869
H           3.50714612945320   -0.67860921881168   -2.74027919519378
H           3.44876068613352    0.95370132750399   -2.82753251507728
