    23
        -45.36398997  Gyration_radius:  2.41573979114 Dipole_moment: 1.999
 S          -0.10570268041887    0.60699022867406    0.91113206057070
O           1.25264396086863    0.22697221014238    0.29744888953820
O          -0.45544630630880    1.94352674060134    0.52799722148167
O          -1.11626654150173   -0.33825263058598    0.20713164420213
O          -0.06352882380254    0.31188299881082    2.30624386862784
O          -1.34649891301035    0.06640394414354   -2.57512117899311
H          -1.52411972878310   -0.22678446265056   -1.67181936853939
O          -0.83866553499956   -2.53820531196564    1.40106717368259
H          -1.03320660614875   -1.26767297821309    0.64497827002205
H           0.12763588809194   -2.47647491755701    1.67906743099127
H          -1.34926001428107   -2.43375574793159    2.20771038902464
O          -0.88149855109475    2.76286883219886   -1.94825283802874
H          -1.21884954891862    3.65941176409267   -1.95312124825283
H          -1.53829811004084    1.01553725025647   -2.58915645225947
H          -0.77898869021428    2.51507328593425   -1.00437837468941
O           1.14927523434296    0.83974308622437   -2.14543117414833
H           1.26579578579042    0.47899737228812   -0.70396724236659
H           0.34967641036648    0.35287223744798   -2.46405152328218
H           0.88214092256895    1.76848349447940   -2.19430217450956
N           1.60127194845503   -1.98261086434592    2.19784942244780
H           2.23930898000706   -1.83853665522766    1.42528498607192
H           2.12124302618086   -2.38335263834482    2.96833321423791
H           1.26133790282998   -1.06311723849604    2.47535697419941
