    23
        -45.36140453  Gyration_radius:  2.48281846377 Dipole_moment: 3.034
 S           0.42096563488576   -0.88001907357925   -1.02392404414887
O          -0.89974006453456   -0.58925391009550   -0.25177778302755
O          -0.06683865450667   -1.09157111805091   -2.45296982281123
O           1.25564487680534    0.29021333673199   -0.91857936411741
O           1.01393833387604   -2.08908126056716   -0.54464131924517
O           0.69628713528503   -0.47102397041827    3.35555889411683
H          -0.00101776429692   -0.65318868839091    3.98775851790029
O          -1.92269317086267    0.61162529393137   -2.65887691917235
H          -1.44911800131608    1.42203992413479   -2.29691209375429
H          -0.81444787258996   -0.41191159178133   -2.64527464050269
H          -2.50277989573266    0.30443415791250   -1.95683077819454
O           1.07719710412310   -2.75588436822743    2.03158245145590
H           1.91610977382438   -3.21063188168920    2.12903306348967
H           0.87435910939321   -1.32418739036285    2.89604150527074
H           0.99038592942009   -2.56754289951604    1.07508464061729
O           0.02640019677813    1.11710098232951    1.35836363608533
H           0.82163164972477    1.14414266558562    0.80738032561082
H          -0.66735664426863    0.10768893374595    0.45990392324363
H           0.27862004346757    0.61281809036788    2.17388978642524
N          -0.46422902581962    2.48600394548478   -1.51905071754032
H          -0.15653539074082    3.31431517910311   -2.01202608538085
H           0.33896673480538    1.86884665681247   -1.40073334846133
H          -0.76575003772520    2.76506697653813   -0.59299983786523
