    23
        -45.36293452  Gyration_radius:  2.48424459149 Dipole_moment: 1.868
 S           0.66261157474407    0.28105196916807   -0.72548255720478
O          -0.07585623796249    0.28318076417994   -1.95874590421876
O           0.64317180816550   -1.13831343609621   -0.11336668296212
O           2.01164906036914    0.74156581564722   -0.77514843322660
O          -0.14396523706905    1.11799484809542    0.29437176672603
O          -3.33880799639952   -1.11281977572969   -0.50658555012725
H          -4.18741664328696   -1.30353231340441   -0.90946773804051
O          -1.14537733487860   -2.19021218202774   -1.52120816840485
H          -1.99735528119842   -1.92393322796203   -1.09055899330262
H          -0.98632810963903   -1.53503128340914   -2.21388402473063
H          -0.07404900795991   -1.68338638929320   -0.61967921378955
O          -2.48394239295916    1.28948069427312   -1.28365897233156
H          -2.22250652574870    1.79914712210192   -0.51215811019244
H          -1.64369776031743    1.00715763230796   -1.69005840724010
H          -3.11689301523738   -0.18296966349303   -0.75191664215553
O           0.89118226189239    0.24259521641150    2.41699697236466
H           1.85618508234465    0.49697260137842    2.29283469107290
H           0.22479827647897    0.86086393754623    1.21946032111823
H           0.83615326598538   -0.69577145748367    2.21300757881903
N           3.36226762657983    0.84764771828062    1.72272019199294
H           3.08312749236278    0.85725860570127    0.74019808435735
H           4.11437996745574    0.17789869203644    1.82484550123915
H           3.73066911619849    1.76315410178145    1.94748431022977
