    23
        -45.36140458  Gyration_radius:  2.48277214934 Dipole_moment: 3.035
 S          -0.46639706848296    1.33041710248263    0.10818324939522
O           0.58079596916374    0.43344259789622    0.83193021950586
O          -1.63526419362862    1.47150655757205    0.91871632287648
O           0.24884860258541    2.67400713428671    0.01905866649485
O          -0.69639976474469    0.76695394568295   -1.19832452118046
O          -1.72500244153708   -2.75345397526309    1.19056544601725
H          -1.38439878005934   -3.28326669446577    1.91325193336157
O          -2.68660203629190   -0.53446537190251    2.31734560577411
H          -2.26748913210909    0.23281873981709    1.87732114657416
H          -3.63089001721700   -0.37095861474471    2.27533333271720
H          -2.12382677099095   -1.95376227204073    1.60550313816756
O           2.64285355250373    1.99776535230349   -0.42618233244808
H           2.49513194131202    1.34157896015453   -1.17428272455174
H           1.24043617889782    2.50213929724976   -0.19348982916184
H           2.81217980652123    1.47282888520940    0.36089227834249
O           0.09474961001540   -1.70849111184103   -0.40838343326822
H           0.49237445754057   -0.49845931620957    0.41989898522400
H          -0.56627431391857   -2.20013691083842    0.14324735885806
H          -0.42255306049434   -1.18012649665832   -1.03284859536180
N           1.90643498169638    0.23082267254628   -2.23578265202013
H           2.14257316797287    0.32178630648883   -3.21552096561232
H           0.91557239080663    0.44577163659079   -2.12585647904574
H           2.03314692046271   -0.73871842431486   -1.97057617066071
