    23
        -45.36140466  Gyration_radius:  2.48256768117 Dipole_moment: 3.038
 S          -0.80171793012763   -1.15730805153182    0.13912485485484
O           0.00058149212713   -0.21232976809671    1.08161876597591
O          -1.08785731407764   -0.42839805437151   -1.07082796117196
O          -0.09031441048103   -2.38280540034014   -0.04865883706045
O          -2.07019713714111   -1.43003491173898    0.94003194423891
O           3.27350017575155   -0.04323183386801   -1.12000481774372
H           4.00114357038173    0.20223063796858   -0.54610379240890
O           1.01384730091481    1.25305926265392   -0.70377957985786
H           0.48162552590032    0.45562856245640    0.47441212359075
H           1.90144979631672    0.86100531521226   -0.90739999695356
H           0.39571889074330    0.84779403914926   -1.32860739001425
O           2.55146537611506   -2.49526152595921   -0.35499562421754
H           1.59209704714545   -2.48047108930090   -0.16194372170790
H           2.68014465763408   -3.22389085524967   -0.96537017716551
H           3.03374925342050   -0.96649017151848   -0.87334388193443
O          -2.51557920343617    0.79954678823670    2.04387736616420
H          -2.42422293519318    1.40399423896696    1.24498413039607
H          -2.35318930577309   -0.55931171751794    1.40858752112584
H          -1.70237700086933    0.89595022524430    2.54699565563876
N          -2.05024331748774    2.11012674057562   -0.19362508535706
H          -1.86207069900063    1.25776336786316   -0.72095493584443
H          -1.20008271676792    2.66104331632861   -0.20284466930570
H          -2.76747111607651    2.63139089486206   -0.68117187121648
