    23
        -45.36514199  Gyration_radius:  2.28509147604 Dipole_moment: 7.090
 S          -0.86960531355105    1.57050925441585   -0.75906860084873
O          -1.44448340326634    0.33489375423906   -0.20788714677709
O          -0.43074483655962    2.43656762084587    0.47185937016136
O           0.39766155533336    1.20690448474624   -1.46269944147444
O          -1.76949518313683    2.31131021016557   -1.57160877325738
O           0.97966345220501   -1.20462508315199    1.85689801363587
H           1.32708116251250   -1.63456910234757    2.63939008849089
O          -1.09509042822885    0.32695108075410    2.38731090409764
H          -0.94067603330581    1.24573093933041    2.61950624424165
H          -1.38349143598276    0.34574861789585    1.44492701000451
H           0.19269382724399   -0.67451844572578    2.15529454284236
O           1.84735862868842    1.18370713823321    0.74801861598387
H           0.45781479387327    2.08029280964030    0.72069059976558
H           1.69207774965570    0.30280070148860    1.13076962453164
H           1.65109772611256    1.11207024108193   -0.20207779298652
O          -0.55229244020515   -2.14436969054523   -0.21383269439507
H          -0.04207117069920   -1.68465481628993   -1.57248225139448
H           0.10375828102788   -2.03326819754228    0.49860453606063
H          -1.11878696642118   -1.34655128728701   -0.12736114339464
N           0.20302725626873   -1.10806701475100   -2.45882908244819
H           0.29759908032831   -0.06561128975523   -2.08216774871537
H          -0.56772632157744   -1.14448999634189   -3.11829103547646
H           1.06463002968409   -1.41676192909932   -2.89696383864843
