    23
        -45.36140458  Gyration_radius:  2.48241544119 Dipole_moment: 3.038
 S          -0.73333287050813    1.18621740834099    0.23942246761594
O          -0.07312242412629    2.11342434072803    1.10401236135596
O          -0.66609296872586   -0.24811570304816    0.84207709858973
O          -2.22974817737649    1.47854241644100    0.23802406074145
O          -0.20643449210708    1.12256335093985   -1.10050692201086
O           3.27043823812096   -0.48706647471420    1.01979469370809
H           3.49403937602949   -1.14483488865211    1.68037260413065
O          -3.22979221710397   -0.76451728034292   -0.35827636437971
H          -2.65939455094777   -0.99674932781460   -1.15366280561055
H          -2.89491069484668   -1.28967546084286    0.37366760655432
H          -2.72940671243908    0.61977749808845   -0.02812579445962
O           2.19979571603648    1.55003632056597    2.36962668136549
H           2.91808690409979    0.28699572064465    1.51709692670712
H           2.66693116107232    2.38766381101991    2.38333080542755
H           1.32359142995855    1.74435156775147    1.97917272040088
O           1.24860246594511   -1.10635460234677   -0.55752802314352
H           1.13950140560506   -0.32171124534741   -1.11349435039995
H           2.06900954309984   -0.94868010062603   -0.02353434097752
H           0.09479706996897   -0.72768916680178    0.35482664909655
N          -1.47172094307457   -1.14452145255204   -2.28300666186561
H          -1.73259172841177   -1.18830552454083   -3.25965459930157
H          -0.78781370968461   -1.87098501037256   -2.10728581085090
H          -1.01043183058545   -0.25036620651677   -2.11634902268850
