    23
        -45.36401755  Gyration_radius:  2.40224540574 Dipole_moment: 1.948
 S           0.49320770938345    1.27547238467735   -0.11634492570334
O           0.19903602626634    0.49565991514853    1.19387489581450
O           1.89612933596087    1.15607499761331   -0.38190936524000
O          -0.29710849189047    0.48530606171523   -1.18466932886075
O          -0.06901631473300    2.58212899921335   -0.03165174084127
O           1.15262435637350   -2.14536335223878    1.21378602453356
H           0.80365674875075   -1.29122758354833    1.50208069386601
O           0.73537401136746   -1.80081443044018   -1.36931990566368
H           1.68015497155062   -1.67357723212512   -1.53492677730673
H           0.70761682340297   -2.12296954861357   -0.43263913609241
H           0.11854280066158   -0.45738732022101   -1.31246537843259
O           3.24783151009622   -1.11678549770372   -0.33865120376723
H           2.81572583627960   -0.23607814901948   -0.32974459866983
H           2.08481580345371   -1.99145367195643    1.00020579141339
H           4.18937970284032   -0.94957718018227   -0.39704153055920
O          -1.96780653637287    1.64456485794593    1.63718777293391
H          -1.60205658063671    2.42894744257246    1.20172886967294
H          -2.56293855505557    1.21907568378479    0.95944287542246
H          -0.71018236769859    0.88517379355331    1.51336809678590
N          -3.18531779032584    0.51199760805473   -0.45316957092812
H          -3.53266135288804   -0.43508504860670   -0.37068487809183
H          -2.32839476264075    0.48462128771920   -0.99892478858018
H          -3.86861286413659    1.05129601268541   -0.96953188170632
