    23
        -45.36140466  Gyration_radius:  2.48251989336 Dipole_moment: 3.040
 S           0.93103098179324    0.83766767778395    0.65749312633701
O           0.69733865785345    1.23587733348540   -0.70776724732581
O           2.41977331944817    0.67995961057497    0.94647025864594
O           0.34765513087413    1.69214513476274    1.64370453531909
O           0.39517473560271   -0.61496727904363    0.82422184204600
O          -3.42956088628343    0.25724197451291    0.37812945230929
H          -3.94166158120342   -0.44005455695382    0.79113598487567
O          -1.33392624338859   -0.54250900704987   -1.01066331161580
H          -0.92418851816971    0.28267283107581   -1.30719321559035
H          -0.33996707010168   -0.73092381538950    0.12249127613801
H          -2.18462762409313   -0.28108831023044   -0.57372905033816
O          -2.20591931712405    1.53115434708799    2.37749481667047
H          -1.24731790949678    1.54954539916998    2.18065115969261
H          -2.44899157970974    2.44130294217026    2.55833085405262
H          -3.01273392547777    0.76031128957417    1.11574083823878
O           2.95179056293872   -1.55723259396296   -0.10188457590368
H           2.74179673847072   -0.20150098328250    0.52538119936183
H           2.35521497334558   -2.11753139593942    0.40197929233683
H           2.52136398485587   -1.42790923208771   -1.00187376563966
N           1.59596987814842   -0.96695791699158   -2.28207404878608
H           0.73573919175715   -1.48651268914396   -2.41019875994693
H           2.03611924672210   -0.86008946427208   -3.18685675349865
H           1.33992726323752   -0.04060126585356   -1.94098391738070
