    23
        -45.36140455  Gyration_radius:  2.48259449995 Dipole_moment: 3.035
 S          -0.66191400538003    0.91092688954656   -0.85679883937527
O          -0.75155062385076    2.23890468489347   -0.33559304283806
O          -1.07070303091850   -0.12096525819146    0.23550892346851
O          -1.73638673673645    0.71491848391351   -1.92062502432802
O           0.64076658313424    0.53628064583561   -1.34657455219966
O           1.65148276937223    0.92495745732002    2.89698528955684
H           1.33774870786305    0.64699912181780    3.75913819628863
O           0.00795964928632    2.88302506563808    2.13283826644622
H           0.36070082415051    3.77009843648460    2.03965662327183
H          -0.35220154620883    2.64957903799098    1.25328455072320
H           1.07757696835582    1.68011108509603    2.63050539369181
O           1.25491540561292   -0.79776155580469    0.93889188886709
H           1.48618095262241   -0.21912788830479    1.71011672948810
H          -0.19803395783778   -0.48746332217827    0.62349870831915
H           1.58187158573765   -0.33583303537383    0.15377242273315
O          -2.11433481746838   -1.78334893055224   -1.86826350897981
H          -1.93960752833692   -0.29055026254571   -1.99681080075137
H          -1.16001533014825   -2.09886828264840   -1.90930169285051
H          -2.39102619339413   -1.88533186749293   -0.95353937262726
N           0.47384465729666   -2.27210486946476   -1.81890926332438
H           0.71911957405990   -1.28255012756861   -1.84508535048298
H           0.95632073086918   -2.73717219650281   -2.57702189155457
H           0.82728539193535   -2.64472332190500   -0.94567366353422
