    23
        -45.36399005  Gyration_radius:  2.41614772945 Dipole_moment: 2.011
 S           0.14297776962740   -1.08951328410095   -0.01191431532263
O           0.98549610904799    0.04263555718957   -0.65857779494601
O           0.81961430528203   -1.47033709046872    1.19332929871379
O          -1.19402815448167   -0.41131926388531    0.33278530801385
O          -0.11043750110689   -2.11058619894815   -0.97544136645125
O           1.59410017533055    2.17660469395327    1.08309241566248
H           1.60598549877345    1.57647972062696    0.32601432173433
O           1.66824111354283    0.18963244524655    3.06628181154219
H           1.99072932608209    1.68607585485567    1.81786260701832
H           2.18895466456098   -0.27827320466783    3.72016088940046
H           1.41717927119392   -0.47596593213392    2.39052715764902
O          -0.70176032954095    1.32587501407359    2.09205053998716
H          -0.00032950534546    1.87960601804329    1.66883361474407
H          -1.04608859219439    0.29849687350716    1.06790418476087
H          -0.23266457483003    0.87785988642368    2.81012097601380
O           0.10024281341881    0.20810170658682   -3.01022718635818
H           0.53490872657473   -0.50989691862248   -3.47698480626859
H          -0.85118822230915   -0.09248970776173   -2.87073939748698
H           0.65146914035033    0.16960088625383   -1.62556718282860
N          -2.22237580301734   -0.84436520028556   -2.38323008780938
H          -2.73132272480117   -0.29079829468511   -1.70554748399064
H          -1.71634059178233   -1.55823159936269   -1.86125700391623
H          -2.89336292435566   -1.29919197179001   -2.98947647992392
