    23
        -45.36293462  Gyration_radius:  2.48408953329 Dipole_moment: 1.871
 S           0.02455932280664   -0.76073726740522    0.68271709938023
O           0.57073396596803   -0.19638533284629    1.88665553343038
O           1.05306422664755   -0.62779715641660   -0.46370450043805
O          -0.42275027322148   -2.11374855781491    0.74414980147463
O          -1.13311729731427    0.15821175583124    0.22849049471324
O           1.35100290744982    3.26110332787431    0.42308185828702
H           1.72559707858959    4.05182658854191    0.81449825315831
O          -0.53205640730652    2.25959438688845    2.02211499402121
H          -1.32890892104768    2.09453693515713    1.51105432548918
H          -0.13768204510281    1.37802113458125    2.15710092215476
H           0.60316998708008    2.98894886975183    1.00674412539868
O          -1.27445796034640   -0.55919521390325   -2.18155497541241
H          -0.33644453955764   -0.51101819312068   -2.38879603962031
H          -1.48808406004614   -1.53770848484605   -2.09018765023409
H          -1.30415884598947   -0.07586551018265   -0.75838807344656
O           2.66972255139057    0.97311182214272    0.59045069936009
H           1.78849284312867    0.02441688301297   -0.14523135391200
H           2.28033555392327    1.87000489413108    0.42875525947184
H           2.36148548700051    0.70816542073064    1.46746311867473
N          -1.62102572813920   -3.11435611188029   -1.62995110057542
H          -2.55895929215626   -3.46950311146055   -1.49381153182150
H          -1.20563159140498   -2.97127448068786   -0.70782038647278
H          -1.08488698234135   -3.83035257804250   -2.10383088306202
