    23
        -45.36514205  Gyration_radius:  2.28499698481 Dipole_moment: 7.085
 S          -0.46206411149211    1.82677684534555   -0.49712402786430
O           0.71626293953068    1.29717542239959   -1.24846441681120
O           0.11370155227047    2.36473473821550    0.85827563835139
O          -1.13911131020339    2.87240930377898   -1.18053438313292
O          -1.32225727326281    0.68524004706995   -0.15378644453245
O           0.61124504112446   -1.67206476386015    1.63974975776043
H           0.82135857475847   -2.28781304188074    2.34300201702014
O          -1.08321080999423    0.19103436706941    2.40664839559974
H          -0.73415223316048    1.00197618386821    2.78404388830831
H          -1.32372096372116    0.42277198656247    1.47919273507008
H          -0.04646783342387   -1.02904436447034    2.01854888568067
O           2.03847051940569    0.59677757404299    0.93094923168620
H           1.67382467205907   -0.27375252627791    1.16721467911709
H           1.86693070933339    0.72122060977134   -0.01847140770274
H           0.88912805297880    1.78036269032115    1.04714841067118
O          -1.01365479372321   -1.90091189856922   -0.55657822600124
H          -0.37660146116801   -2.05500821374057    0.16512108748765
H          -1.38899444713892   -1.01860702636202   -0.34348282402255
H          -0.36223259654516   -1.36245397456887   -1.82320868362573
N           0.03924453849143   -0.72539242579388   -2.60477031878276
H          -0.69526702686647   -0.47984480853217   -3.26091306691418
H           0.82385047978670   -1.15061469301065   -3.08769392002510
H           0.35371778096110    0.19502796862152   -2.06486702733846
