    23
        -45.36293464  Gyration_radius:  2.48357694562 Dipole_moment: 1.870
 S          -0.18591061964016    0.57064857877585   -0.82731277456970
O          -0.06649932359091    0.41678552145105   -2.24037232516492
O           1.14208408405356    0.17880970439283   -0.13914720417590
O          -0.55266109504435    1.87204629286357   -0.33935742366203
O          -1.18497154018295   -0.48199191510243   -0.29450085137319
O          -0.53490938077816    0.94923388791788    3.38041678033556
H          -0.70134672991776    1.46579208749293    4.17047438127168
O          -2.35204053891663    0.87950715988123    1.45837754382212
H          -1.76617388665529    0.81989009910252    2.25543080049956
H          -2.09241963835279    1.69152307090173    1.00282503884908
H          -1.73803109596583   -0.03198997969446    0.45347059698289
O           1.10013170679177    2.28129767746682    1.75036360261849
H           0.14251774376277    1.44495522862024    2.86133996095827
H           1.82211517233241    1.70536157495655    1.48500895530518
H           0.51291281676158    2.31613545621391    0.97261068476552
O           1.04670176115512   -2.31131439336547   -0.50299548201536
H           0.14005977685206   -2.45172699039691   -0.21409619267134
H           1.02987404618488   -2.36908171518206   -1.50694098695614
H           1.22690075473793   -0.83964285587228   -0.25614371441056
N           0.80621873420474   -2.13914924948390   -3.12316444485158
H           0.45872368061279   -1.18332255049113   -3.02812775820869
H           0.10700082718280   -2.67506438242465   -3.62170763948422
H           1.63972272441213   -2.10870227801787   -3.69645153787615
