    23
        -45.36293464  Gyration_radius:  2.48388377571 Dipole_moment: 1.873
 S           0.48197296161590   -0.89647602871989    0.09738622268257
O           1.21118902470202   -0.82329740248844    1.33397794139324
O           0.96923860255574    0.21767936328086   -0.85709524164895
O           0.50695811498530   -2.14122804422727   -0.59868738715048
O          -0.97872160260212   -0.48974877145196    0.40024006619263
O           0.37640797425193    2.83880187046779    2.10523230797535
H           0.60705595192243    3.40677156310380    2.84209132371988
O          -0.45804985915557    0.47316144550330    3.00712649378443
H          -1.29334069738395    0.24982880542235    2.58788544056741
H           0.20254918045420   -0.08298196954930    2.55413010512095
H          -0.00981374671265    2.01899953103980    2.49602796523578
O           2.29216291954116    1.61496407184505    0.75079637924797
H           1.62227654872687    2.19799144999156    1.19055061036954
H           2.39511905217816    0.84970877118512    1.33229304188446
H           1.53892241088221    0.87507307303239   -0.29953850581518
O          -1.71174241084484    0.09191155689789   -1.93778214457971
H          -1.39764036301885   -0.25607933482426   -0.50980848359194
H          -0.95937232170555    0.64049723520584   -2.17901962098463
H          -1.58079274731057   -0.78363450559018   -2.41513808329420
N          -1.07518258781748   -2.25551127322574   -2.95582535667910
H          -0.54654082572003   -2.32803966456697   -3.81601584951953
H          -1.76029967864843   -3.00044668101876   -2.95000980262489
H          -0.43235591090042   -2.41794506130126   -2.17881740228771
