    23
        -45.36293465  Gyration_radius:  2.48387521435 Dipole_moment: 1.873
 S          -1.00824749525846   -0.09356529595522    0.14263060627186
O          -0.04542053495749   -1.30306987413786    0.14484604363176
O          -1.25862427104807    0.32426819286960    1.49501724659657
O          -0.17705629595794    1.01963161020213   -0.53613224099972
O          -2.14381022713553   -0.41180868412583   -0.65970515652421
O           2.41482709478802    0.82192097471775    2.47503065266261
H           2.82605376021611    1.11643946342299    3.28921841414257
O           0.73910753188869   -1.22546089167529    2.52533707740088
H           1.47391935208423   -0.56055711907852    2.52850399561462
H          -0.05727361610745   -0.73667223196307    2.77273817447698
H           0.35438050056722   -1.37813205752865    1.09458404093682
O           0.38471132344153    2.43171248429165    1.84802176357778
H           0.47054223598739    2.70967380477766    0.93219582711947
H          -0.32087148276629    1.75870805173468    1.83721612082302
H           1.73692780801553    1.50100626010926    2.24418739810404
O           0.77002216253577   -0.31577242583801   -2.44967574129980
H           0.24122122014472    0.58625838122544   -1.37012383104551
H           1.06419553728789   -1.07955709387266   -1.94440673763984
H          -0.06588389552664   -0.60529288399527   -2.92829027684140
N          -1.58065688616611   -1.08709306420126   -3.36139843757556
H          -1.99417998842234   -0.91042930465428   -2.44425523424185
H          -1.75842191839041   -2.05447834860855   -3.60060191174039
H          -2.06546191527230   -0.50772995771713   -4.03493777340023
