    23
        -45.36293462  Gyration_radius:  2.48381103729 Dipole_moment: 1.873
 S           0.01670198555604    0.68579351677211   -0.75812151150667
O           0.32566532836450    0.68388330320474   -2.15062694738732
O           1.28188745890009    0.28169705317317    0.03312593666257
O          -0.52671049611902    1.89832091001539   -0.20974636616160
O          -0.98042371384526   -0.45139756372747   -0.43677012465403
O          -0.86288185307222    0.62275819362138    3.39048083364568
H          -1.19607863080966    1.03611103484812    4.18851479801501
O          -2.54459432061868    1.06018844203631    1.36900330250255
H          -1.92035632240033    1.51218649725563    0.77157892584864
H          -2.73987536241276    0.22683818142158    0.93225156456585
H          -1.56355297290573    0.73623114341537    2.70476989935724
O           1.05935053569345    1.80745601298128    2.01072272695001
H           0.50085561833515    2.40103132828867    1.49101894845848
H           0.44579377875844    1.33357161358185    2.62801985755299
H           1.30429590113726    0.85359229045763    0.89335487844818
O           0.56717163043940   -2.41666626549191   -0.72676636446465
H          -0.45342906401627   -1.32671498143426   -0.55704893609128
H           0.83837831178429   -2.32038738723587   -1.69050606437568
H           1.30490204765920   -2.08072139581629   -0.20900332097192
N           1.25126570152745   -1.79107920842888   -3.19511689424314
H           0.69623802092454   -2.13981811624593   -3.96627466201453
H           2.22054335443071   -1.79046589679023   -3.48697927572342
H           0.97485308276389   -0.82240872591811   -3.02588116440506
