    23
        -45.36293462  Gyration_radius:  2.48401243045 Dipole_moment: 1.873
 S           0.26214547054133    0.65776939136300   -0.73737812704464
O           0.08902630517847    0.75430056770583   -2.14988361337395
O          -1.09841084485428    0.38301048473409   -0.05599324648740
O           1.07991186006263   -0.61560780178012   -0.42181100915400
O           0.85326903581191    1.78629360758222   -0.07158660273608
O           0.75956153078827    0.29537706184010    3.45992807639124
H           1.02862175074318    0.64615895394230    4.31041751372163
O          -1.43280957788182   -1.99796236474680   -0.80516644025391
H          -1.44664396767422   -1.89586136148559   -1.80561731116875
H          -0.55725460651515   -2.32953236354272   -0.58455539878739
H          -1.35653825642399   -0.57570809165523   -0.32522144342006
O           2.49576448666664    0.23767861600616    1.46378740445672
H           1.92598516831483    0.14762857643027    2.26958724448555
H           1.71612780878711   -0.38849010196103    0.36003743398906
H           2.36665130842293    1.14339245058285    1.15175668850299
O          -0.66237013836801    2.11845282365214    2.13292391425568
H          -0.09433656123467    2.18149679879938    1.34284594208281
H          -1.47648440524065    1.71790418881052    1.81647767707935
H           0.16418211726192    0.97091718444755    3.05598980815066
N          -1.22060483757663   -1.44940345920001   -3.37552503994312
H          -0.63226392117600   -2.00527632254556   -3.98340487892422
H          -0.71496886250874   -0.59096540308228   -3.15019660677237
H          -2.04856087312381   -1.19157344589573   -3.89741199504538
