    23
        -45.36140455  Gyration_radius:  2.48295799726 Dipole_moment: 3.035
 S           1.12106396833037   -0.82845157762387   -0.23753439996162
O           2.30141125651845   -0.42347956384249    0.45954662901819
O          -0.09950637711827   -0.82264714764579    0.72948093437045
O           0.77914353242810   -0.01644250473052   -1.37810637243593
O           1.24100083596813   -2.30065193284364   -0.61585268391185
O           0.14187191822418    2.98326635567547    1.74657261158531
H          -0.29991909625601    3.08824584155338    2.59091212292509
O          -1.07089574262444    1.39553825065187    0.02361257825968
H          -0.60135604401253    0.05057881565528    0.55128442768465
H          -0.69564452839674    2.06806982193753    0.64797948173688
H          -0.46826905619932    1.37168674648208   -0.73329488554584
O           2.32750141173087    1.54030734414118    2.25634078449660
H           3.18730026799196    1.94824594241585    2.13609922256263
H           0.97433856368760    2.49160549903802    1.93626842840691
H           2.32025172686700    0.76320467520033    1.66138461324140
O          -1.17466974915366   -3.02561164895575   -0.77939675948655
H          -1.53566210630069   -2.28263195991028   -1.35360975499795
H           0.29419373623933   -2.68331046874628   -0.73753848326733
H          -1.46190558273134   -2.83465200503287    0.11769497365035
N          -1.83385277129197   -0.86958587734784   -2.14206961264539
H          -2.41607004475478   -0.20566652138083   -1.64543978349949
H          -2.14789493612809   -0.90502398595847   -3.10329263350098
H          -0.88243117302525   -0.50259410874125   -2.13104144868006
