    23
        -45.36293465  Gyration_radius:  2.48356101947 Dipole_moment: 1.876
 S           0.25147697447851    0.99040019893147    0.04609963449985
O           1.29248854842555   -0.14581683991154    0.17024304261602
O          -0.13135706464119    1.43731150784831    1.35758536975696
O           0.75230535389612    1.97581171626682   -0.85544821003738
O          -0.97461066902289    0.28134734840405   -0.57409180023140
O          -1.21090143253097   -1.99668507005983    2.67699050044260
H          -1.57359319255105   -2.27551981277791    3.51928769444867
O          -2.47490583598392    0.18828963712900    1.82022271112818
H          -1.69860502722514    0.77496970658643    1.75642648681155
H          -2.75626457254191    0.05660765855376    0.91090245700878
H          -1.77268113436838   -1.24703171424094    2.36641031759353
O           1.07504434922700   -0.66520199013048    2.61389932489837
H           0.71644727734787    0.21864072670837    2.77074436558897
H           0.30223527653368   -1.28271857827606    2.67277119019257
H           1.29683817415306   -0.45484652227629    1.15616024350949
O           0.20717841274207   -1.05124462250138   -2.35422055884116
H           0.91116484210298   -1.40944017087463   -1.80533882923855
H          -0.60707282053714   -0.28166128311255   -1.35277761787649
H           0.62877978480286   -0.32322619184402   -2.90553242080111
N           1.34684682539752    1.04630141551655   -3.47352763458495
H           0.85541399036409    1.54613532282464   -4.20362100072412
H           2.33158468695222    1.04566175718923   -3.70796592400128
H           1.23218723305130    1.57191582007452   -2.60521935228905
