    23
        -45.36140462  Gyration_radius:  2.48274999292 Dipole_moment: 3.038
 S          -0.41469055472044   -1.06038266346636   -0.83873287323630
O           0.65862292810703   -1.86849066596743   -1.32661713689973
O          -1.62497710234675   -1.22813198205625   -1.75073974605247
O          -0.76081995840516   -1.27830527610019    0.54330827669986
O          -0.06707759884087    0.44829983284005   -1.00659499826656
O           3.23721257986898    0.39400679688764    1.15608005842464
H           3.77856210898173    1.13709074005548    0.88438264567551
O          -2.87158799698381    0.94529120341309   -1.42041938586176
H          -2.19709475712547    1.56464720396957   -1.71231001597998
H          -2.21913929576233   -0.39328862352320   -1.66103423176011
H          -2.87359972957762    0.98654977718970   -0.41525450256241
O           0.65436544886856    0.88768394499384    1.37009849096050
H           0.27333691143540    0.02820380308734    1.60006231317321
H           1.63753336396717    0.76111399402876    1.38526940690248
H           0.25451819701040    0.77112398990326   -0.09090115785276
O           3.22286081750425   -1.28182932816377   -0.91997119479247
H           3.63949589062496   -2.13995125823463   -0.81892142380185
H           2.29006816739561   -1.46835304624800   -1.15022692308069
H           3.26697804003395   -0.24947626857306    0.41061293033582
N          -2.56140841263883    0.83699282718033    1.19331124446754
H          -3.33875423140707    0.72881833472640    1.83194244700149
H          -1.92872749985679    1.52608889966144    1.58218055175821
H          -2.05567732610320   -0.04770222558138    1.15447523472477
