    23
        -45.36140463  Gyration_radius:  2.48249281559 Dipole_moment: 3.040
 S          -1.27798249630025    0.56879019651080    0.21159714471165
O          -1.01151148934870    0.30605251516334   -1.18024567861033
O          -1.24582372661929    1.94894493930430    0.58219612645051
O          -2.60593229351009   -0.03863302623371    0.65027021369850
O          -0.24089450479068   -0.23431615728933    1.05100810543492
O           2.93847083643930    1.82478375491387   -0.06359832954362
H           3.61325163229723    1.71005976203027    0.60766596821346
O           1.01167040064197    3.26332635291919    1.09278904876255
H           2.24583999281053    2.39510333293128    0.34343077037020
H           0.83962644269172    4.14810801556998    0.76463971707536
H           0.16881162710326    2.77658097627241    0.98980482262120
O           1.57935368182567   -0.34747820522964   -0.69141938912868
H           0.57910336838334   -0.35620476099035    0.45179496170908
H           0.92657863691098   -0.03377644652842   -1.33345520147099
H           2.17629525461157    0.42376730795009   -0.51309091292234
O          -2.03045820371837   -2.48415687365374    0.92496294021027
H          -1.34685188173027   -2.41488894518733    1.59696253634999
H          -2.47955004866513   -1.05345919922392    0.76029326037364
H          -1.55247921258736   -2.64275249539939    0.05402214400104
N          -0.70049935154993   -2.52491941587370   -1.34855664955367
H           0.30403313212862   -2.62174357140873   -1.25974515351017
H          -0.89190578621610   -1.54263495352282   -1.54469341451959
H          -0.99914604085853   -3.07055310300957   -2.14663305072807
