    23
        -45.36514202  Gyration_radius:  2.28505168372 Dipole_moment: 7.088
 S          -1.76865349548678   -0.46329852152325    0.67554286901764
O          -1.81667233742475    0.34419003171496   -0.58102013384412
O          -2.93302989807474   -1.25131670443498    0.88067768764647
O          -0.51994301138083   -1.23888187437106    0.66011283251168
O          -1.62257000156289    0.57927910103184    1.83730826015193
O           2.18639584322264    1.00384555690190    0.26471631745590
H           3.04199090261028    1.39462451905719    0.44672807776319
O           1.15066916137746   -0.17976020040227    2.37595640442706
H           0.60152302984565    0.33767348256743    2.96975963813434
H           0.51706785708653   -0.70339060124169    1.83185587266824
H           1.89391943897007    0.56584112650142    1.10856959250346
O           1.47203783843425   -1.28514804619990   -1.06475047154790
H           1.89303763715122   -0.45412744313565   -0.77744042615797
H           0.85981935201451   -1.49665788355261   -0.32637695583381
H           0.30758700948775   -1.06463235388574   -2.02048280473673
O          -0.27682597522024    2.27221415455244    0.36803262223613
H          -0.83702486898820    1.79741528479339   -0.27000902247723
H          -1.11113580092963    1.32555258052579    1.43745439891819
H           0.63008918671707    1.94439116897150    0.23911118509131
N          -0.67321339660429   -0.90553087928426   -2.45723882548676
H          -1.12942512872151   -1.79843524126724   -2.61513825193146
H          -0.63314215406889   -0.36657862509926   -3.31606532671290
H          -1.23250121845553   -0.35726863222016   -1.66730352979722
