    23
        -45.36140463  Gyration_radius:  2.48243087622 Dipole_moment: 3.042
 S          -0.42566842561176    1.34031846941819   -0.15387121592193
O           0.32668755321088    2.61471066918044   -0.52087309673493
O          -1.57150359291055    1.67904840631464    0.63065204325401
O          -0.70095224950725    0.53611697003127   -1.31776862796279
O           0.61032127992315    0.57086318185726    0.71787410239974
O          -1.77806569327048   -2.40115155268119    1.74428695835013
H          -1.43717435238050   -2.78940354113052    2.55184449916565
O          -2.64284588671652    0.02970128684231    2.42407985250252
H          -3.58279339889561    0.21339891464785    2.36986390081394
H          -2.14127898259419   -1.52147385605730    1.99918002927018
H          -2.21367218838036    0.67891253341196    1.83051877399032
O           2.68897761249694    1.78317420481472   -0.86005695168871
H           1.30770161746198    2.37076103926012   -0.71095246060572
H           2.85957651033028    1.42077889722467    0.01359312682787
H           2.50539114310687    0.99605030171133   -1.45906520694924
O           0.03438750507343   -1.75786986409527   -0.06170163243230
H          -0.48135847169923   -1.34801109864149   -0.77074820289493
H           0.48562678076799   -0.42102760166548    0.50157072929942
H          -0.62800299125256   -2.10716596785802    0.58803896961214
N           1.86122242417141   -0.28442094688619   -2.26689692125944
H           0.87993692559295   -0.01817821643957   -2.18841348163446
H           1.96386967448338   -1.18438570314418   -1.81314965948150
H           2.07961719662753   -0.40074649608182   -3.24800551796598
