    23
        -45.36293445  Gyration_radius:  2.48248318691 Dipole_moment: 1.877
 S          -0.71340834848327    0.38843568290543   -0.62759412398657
O          -0.08483631089272    1.18630743608233    0.53806245373014
O          -1.96439743221189   -0.17817108169392   -0.20296374873628
O          -0.73595996540939    1.21443331226428   -1.79024902086181
O           0.27664544710595   -0.78181558393690   -0.82946597953597
O          -0.57635037033512   -2.03844570643114    2.84795646986997
H          -0.99605119757928   -2.60432183154902    3.49790943793866
O          -1.52755406816622    0.39505741489160    2.43032331342539
H          -2.22332017731175    0.15813820631896    1.80254331124170
H          -1.12077063725645   -0.46214548293344    2.71639017458054
H          -0.60435638149864    0.93994711035736    1.39664744001835
O           2.43771432754565    0.50503837459915   -0.70431522658601
H           2.24753084185534    1.00759545327792    0.09342666412746
H           1.21456734028668   -0.35899939226672   -0.82822848308255
H           2.33357408948316    1.15015179059767   -1.46908231329173
O          -1.35844776298540   -2.73505525673138    0.39700380660546
H          -0.58665392125379   -2.84183022739819   -0.16539534126154
H          -0.82638751348770   -2.39774595198928    1.96333376040200
H          -1.74167329971582   -1.87868316494264    0.13106020418230
N           1.79656952011571    2.19333255736609   -2.62505722341978
H           1.92080185754369    3.19078837310795   -2.50557820558334
H           0.80736263400150    1.98226245817678   -2.48243579381132
H           2.02540131866197    1.96572550989547   -3.58429158597009
