    23
        -45.36140456  Gyration_radius:  2.48257828623 Dipole_moment: 3.036
 S          -1.11805872204233   -0.75224092965779    0.42956600090095
O          -1.20546858121570   -0.90611223155577    1.84796664241745
O          -1.48454959626906    0.55093370190834   -0.06496328803649
O           0.33266405037222   -1.04952314354301   -0.05222450112598
O          -1.92689333582405   -1.85406506043337   -0.24602659017080
O           2.11820207321205    1.70190693823012    2.14118514197991
H           3.03493717285018    1.44175457290190    2.24603189274340
O          -0.79613096686234   -2.06881504342031   -2.49601513058885
H          -0.75958689230340   -1.09849522224806   -2.75916654018801
H           0.09103671652216   -2.30231966609426   -2.20945416183732
H          -1.55632610584956   -1.99526072957552   -1.19509066599833
O           1.10667619325428    1.34145509232768   -0.26848640103020
H           0.78257723617609   -0.14031027314079   -0.18242067271093
H           0.18072151317119    1.60645220945118   -0.17337019466946
H           1.54285743086299    1.56493193374952    0.59338595473302
O           0.70144869504634   -0.09215138820815    3.51699638767513
H           0.02941896129174   -0.47128440322476    2.91487756649281
H           1.59348923992393    1.07056194282943    2.68607132846564
H           0.21747757558505    0.19992625181201    4.29188651818233
N          -0.70796359834586    0.54519190336906   -2.80994585396135
H          -1.16728055707426    0.72542086962338   -1.91747141107929
H          -1.22573617891960    1.02567190889025   -3.53441485704894
H           0.21648767643851    0.95637077600571   -2.75891717513995
