    23
        -45.36514202  Gyration_radius:  2.28505917789 Dipole_moment: 7.088
 S           1.91944554032428    0.25256704271766   -0.22571786440338
O           1.18399841906216    0.17545446727770   -1.52435397019184
O           2.18701751930340   -1.23458945281830    0.19233016184096
O           3.15129859609724    0.95439237132319   -0.31960664302280
O           0.99634596420936    0.80173468494104    0.77795129514045
O          -1.90125849236450   -1.22491359082833    0.86219108050463
H          -2.60562168784102   -1.74096219295288    1.25645494926733
O           0.24775167921069   -1.12954862257752    2.37999542505343
H           0.91524802868706   -1.81170090633389    2.27501075597241
H           0.60728964537322   -0.34393193730442    1.90542476475673
H          -1.15158015689955   -1.22970557277510    1.51597290913191
O          -1.54421587739417    1.48178692387098    0.60971978500878
H          -1.90842949900364    0.57825154739027    0.64641199410734
H          -0.61800200226114    1.36585176743419    0.91539100643171
H          -1.07703862523840    1.88068816280779   -0.78334087553393
O           0.00391653184338   -2.11777636964792   -0.94338100296910
H           0.24533882719190   -1.33591285528621   -1.46946785814203
H           1.41788124656568   -1.73703056479005   -0.17422762411842
H          -0.76837251884868   -1.86486221807493   -0.40841649306245
N          -0.49442716888429    2.05899163330270   -1.68156696392099
H           0.27408535604641    1.25490496344052   -1.66640776458449
H          -0.02430557427452    2.95617558670054   -1.61529467004005
H          -1.05636575090519    2.01013513218280   -2.52507243722646
