    23
        -45.36293453  Gyration_radius:  2.48287485568 Dipole_moment: 1.872
 S          -0.57307460595505   -0.54353032900484   -0.65217929063122
O           0.35048738453083   -1.27731733340763   -1.47374995931578
O          -0.37322315406113   -0.93744971001058    0.82931321206803
O          -0.13974955437662    0.94023259451916   -0.68529775934572
O          -1.95812565835486   -0.65434857339623   -0.97447568771434
O           3.52662450032312   -0.18932958593267    0.37378648080018
H           4.45217014476815   -0.38812189697606    0.22301188508959
O          -1.31749336984604    1.73859299085112    1.39253616792432
H          -1.03417582402344    1.03524381259728    1.98428969064231
H          -0.59981902168497    1.38418515053585    0.12069990057363
H          -2.27825612748739    1.54192191537136    1.16888456486686
O           2.35446675303703    0.46691928990472   -1.92846223420886
H           1.86709327992489    1.28748906685859   -1.81680198661710
H           3.16809793275175    0.13460131587794   -0.48681759462377
H           1.67057863525551   -0.22825837099524   -1.93181826378795
O           1.80096450059976   -2.17488456231990    0.65786457146018
H           1.63504162390109   -2.33962730799835   -0.28003342778840
H           2.49570766917295   -1.46882126110330    0.68747316942868
H           0.51313141818122   -1.46515764973092    0.89203289669333
N          -3.70224943135269    0.92475132857078    0.61702829037145
H          -3.26768865581208    0.26879155650030   -0.03435019860871
H          -4.28958016547074    1.54954929457525    0.07945574415741
H          -4.30092827377724    0.39456825466528    1.23760981857244
