    23
        -45.36140465  Gyration_radius:  2.4825518366 Dipole_moment: 3.039
 S          -0.65793321874474   -1.08588745983322   -0.62338913984348
O           0.75701932071821   -1.31195054364111   -0.46846884469592
O          -1.49028286904715   -1.84420302972030    0.25717072563474
O          -0.91761743666819    0.43680941125815   -0.42553228438610
O          -1.10625571726287   -1.31745519405927   -2.06218681519993
O          -0.01064397809229    0.55844801260377    3.41435077244875
H          -0.44020713905903    1.32688880103770    3.79386822913255
O          -1.98125877886528   -1.12160815080387    2.77156768875067
H          -1.87905244919745   -1.35828197148071    1.82736185368861
H          -2.04509626605433   -1.95595684150790    3.24043833048723
H          -0.73054990675282   -0.08502563145072    3.21848081019970
O           1.07715451170627    0.92524142208022    1.03887800828979
H          -0.16197307886955    0.78039547314718    0.17202518895610
H           0.75495888664870    0.84692807246176    1.97316971535618
H           1.41398219394041    0.04972040765054    0.80069346506302
O          -0.34764609186338    0.79501915774442   -3.22397627512731
H          -0.81064816927052   -0.51206937575060   -2.62938958691651
H          -0.84419079507965    1.44460284758064   -2.71875560282953
H           0.59885041956936    0.84186986539258   -2.88666361031804
N           2.00441954084896    0.71678294647464   -2.03974329313492
H           2.86755255366721    0.57373264365803   -2.54803565590878
H           1.78585265575363   -0.14219814616301   -1.53536278846176
H           2.16356580195948    1.43819725330831   -1.34650089117198
