    23
        -45.36140452  Gyration_radius:  2.48240848312 Dipole_moment: 3.038
 S          -0.48267095549687    1.32745450755452    0.07172340106644
O          -0.68234604616445    1.80250388086648    1.40499955943715
O          -1.48102837856567    0.40145013754148   -0.40037396746907
O          -0.33584667150518    2.51825126380203   -0.86910290851602
O           0.90348857244948    0.62743032961173   -0.04463235427105
O           0.27434463979300   -2.10253109418485    2.73245131662544
H           1.12939921966885   -2.40046542313524    3.04744507348465
O           0.04366228668845    0.42280126856536    3.56246890342070
H          -0.15337548764370    0.97926290310242    2.78168977836743
H          -0.63463973257372    0.63441323035942    4.20687743060197
H           0.16347845252124   -1.18589604457129    3.07645456318531
O           1.03423688053002    1.56010563217380   -2.76450116735571
H           0.18992641206970    2.21523937132511   -1.69949373447123
H           1.82100211292574    1.29792559680428   -2.27872568540785
H           0.51587011728870    0.71519360427588   -2.93574727483419
O           0.08780510636244   -1.75341681729936    0.12422011541542
H           0.72189307282101   -0.37749741899550    0.01281244311570
H           0.15481730992936   -1.99579864430371    1.08326551578286
H          -0.80901869084013   -1.41155627906183   -0.00041860139949
N          -0.43364539953655   -0.62592277144227   -2.84742885361328
H          -1.04392264677503   -0.31407068541539   -2.09223209793677
H           0.02845488516395   -1.46947395630236   -2.52929102523569
H          -1.01188503910798   -0.86540258127191   -3.64246040999753
