    23
        -45.36140462  Gyration_radius:  2.48234245725 Dipole_moment: 3.039
 S           0.07941749356425   -0.13650628393438   -1.40599554957196
O           0.02101199044725    1.24125394952967   -0.98703072765487
O           0.44589891081795   -0.99434423347978   -0.15906038810549
O          -1.11628994309516   -0.63473886333930   -2.01037623082291
O           1.25703172354826   -0.38639796133554   -2.34162846328648
O          -2.91880672965545   -0.39371304858788    1.81479707137038
H          -3.02550261531742   -1.11361050474905    2.43883720289160
O          -3.20605683499417   -1.48965621173112   -0.60081875719668
H          -3.96111674848412   -1.23466526541477   -1.13458356371295
H          -2.41797176289640   -1.25773863601174   -1.13295618049235
H          -3.07088568847101   -0.78383476609025    0.92291694476202
O          -0.47093353745213    0.56594782011178    1.59781918098622
H          -0.54593330324948    1.23643798793263    0.90386271304021
H          -1.39597518233791    0.25863986347748    1.77894230460839
H           0.11966464787548   -0.46867771224076    0.65557240126919
O           3.21692527499114   -0.48729108238802   -0.74906082359213
H           2.11894685213086   -0.41327302104388   -1.78110349251685
H           3.03875178798886    0.34366005065759   -0.21090907661023
H           2.94129042753720   -1.22624556483297   -0.19978200552499
N           2.38312406102204    1.63975012144351    0.56278685607397
H           2.04033202783759    1.46320453540880    1.49962251896461
H           1.56804835365443    1.76173099444806   -0.03783336773572
H           2.89902879452088    2.51006785217319    0.57598142285638
