    23
        -45.36140455  Gyration_radius:  2.48220101359 Dipole_moment: 3.037
 S           0.07883531670117   -1.37132896591586   -0.34193502646990
O           0.43773049116975   -2.22382749385645    0.74783926053749
O           0.39034596271258   -2.07816945091960   -1.65653768465469
O          -1.27743100405549   -0.88456654155448   -0.31268440723646
O           1.02381522056146   -0.13440971254085   -0.38690499641061
O           0.21395476227410    1.19649080992235    3.23815085737691
H           0.95110771444144    1.74068267626748    3.52010923038670
O           0.74060836123477   -0.14847116988906   -3.25067600671694
H           0.52040584367226   -1.36552455422574   -2.38665968356820
H          -0.07770768777027    0.39645051989297   -3.03764820784659
H           1.47588282519744    0.29016477462220   -2.81402057641038
O           1.16063485334127   -1.29585931669536    3.13546352398233
H           0.54454318280672    0.26836883501914    3.24416042359101
H           0.81367191436265   -1.94661321289926    3.74871526149985
H           0.97743407817781   -1.65221625519750    2.24250176844546
O          -0.52983489011263    1.51108068833058    0.72692616863191
H           0.50906064885294    0.63468013299431    0.04877181472328
H          -1.23592016654304    0.85938827723664    0.61102037274023
H          -0.29928669368839    1.49279810602967    1.69109826366238
N          -1.39109873376813    1.11005224023686   -2.34963315533536
H          -1.61370425030933    0.37352234057660   -1.68035797857588
H          -2.20972355161988    1.27615962684937   -2.92065846274524
H          -1.20332420763945    1.95114763572253   -1.81704074961716
