    23
        -45.36293463  Gyration_radius:  2.48363195831 Dipole_moment: 1.870
 S          -0.22082633506540   -0.59302670081158    0.80328389614737
O          -1.27791999514444    0.28091850159269    0.08985557555906
O          -0.28809828164895   -1.93718385006642    0.29831697801720
O           1.11964934277683    0.01148386764606    0.32517715455924
O          -0.35779516815451   -0.42103140112826    2.21266605522164
O           0.17293262768689   -1.02686187871853   -3.39738417799665
H           0.22141197739367   -1.56535722781916   -4.18883731021195
O           1.72130482891193   -2.06738909164140   -1.49367977962140
H           0.83036075358018   -1.40261184371264   -2.76440560579984
H           2.28788408546593   -1.38001034706531   -1.13326818247623
H           1.03120029671275   -2.19891457793868   -0.81738740682136
O          -1.91392574939384   -1.25586964372456   -1.78669354204769
H          -1.62424651862019   -0.25463158389763   -0.72317950527387
H          -1.22634578476948   -1.10135806450650   -2.48342813889731
H          -1.60154523123357   -2.01345369749881   -1.27405611478724
O           0.56365070059675    2.45205396572237    0.59980177172109
H          -0.29555839341074    2.44082976286066    0.16756353896232
H           0.37684124554141    2.50682662929929    1.58662037631312
H           1.01762503460999    1.03031542976275    0.42560170109308
N          -0.06169423727573    2.24359593389287    3.15260328237338
H          -0.90832283351097    2.65802382205269    3.52151096043753
H           0.66407901945933    2.34988831695482    3.84993912508453
H          -0.23066139454155    1.24376368877356    3.02937933846325
