    23
        -45.36293461  Gyration_radius:  2.48372017492 Dipole_moment: 1.870
 S          -0.05107157533996    0.61442643257900   -0.81563588102725
O          -0.07190286348160    0.45568469063812   -2.23302374639893
O           0.03263825176762    1.95677161378888   -0.30834453596253
O          -1.29157782441702   -0.08806549817617   -0.21758331112172
O           1.13079674956478   -0.17961192621532   -0.21254191638014
O          -0.01007991775384    1.00981418498998    3.40681122610020
H           0.03993755612958    1.53944692050528    4.20412935791323
O          -1.87212661766844    1.53653908471503    1.60213342079419
H          -1.40213083404004    2.23630694458030    1.12908006267760
H          -1.63206935932452    0.49734106934001    0.56291920468517
H          -1.28656619670322    1.28562911971949    2.36121577365108
O           1.85403750588554    1.79884640445745    1.67261223093675
H           1.26054848019092    2.02692555357855    0.93323616690636
H           0.75443725763129    1.28059098672936    2.84444642637105
H           2.34503350895630    1.03280421353657    1.36364509974590
O           0.24853755274491   -2.51199242871159   -0.56307140000863
H           0.15438526730463   -2.54446924466689   -1.56391517354888
H           0.88935908102716   -1.17250862699574   -0.33189493340586
H          -0.63799917360674   -2.37034863023238   -0.21782387644554
N          -0.08331918942366   -2.22882953644548   -3.16339805315807
H          -0.94148377567455   -2.51507621764561   -3.61754539800161
H           0.68389640747259   -2.44595918075022   -3.78677370263348
H          -0.11328029114864   -1.21426593935486   -3.04867704165298
