    23
        -45.36140459  Gyration_radius:  2.48254532219 Dipole_moment: 3.035
 S           1.38627785325211    0.26780961104438   -0.08575855206594
O           0.46139347033738   -0.67840877653236    0.73532259918269
O           1.81927265899532    1.35944711284027    0.72910222719117
O           2.58001961383501   -0.62562648972940   -0.40438459094004
O           0.67510469161289    0.64508355596017   -1.28116552641661
O          -2.25704305667891    2.02780961296235    1.66174244702388
H          -2.71663026856170    1.72360711869531    2.44618112365425
O           0.22345498149456    2.59992728702723    2.46119508679377
H           0.51864243470156    3.51208777909425    2.43152992560869
H          -1.35405609430668    2.28566291270996    1.95996806502339
H           0.84537263796715    2.10378014447495    1.89114876703525
O           1.49476744410255   -2.87052063832315   -0.81711037563176
H           0.76430684951311   -2.59060604356414   -1.44959944898900
H           2.23245968539291   -1.56920170799141   -0.62033818278980
H           1.07328348309324   -3.00544025947816    0.03603857235123
O          -1.74534243689219    0.17196581195978   -0.14204301090680
H          -2.04519016779541    0.86423194221263    0.50130169794504
H          -1.24545393173579    0.64281723295871   -0.82400887638334
H          -0.49780887308144   -0.43701898032716    0.47520969095297
N          -0.39194392407156   -1.79377269858824   -2.30752711975605
H          -0.01771386821660   -0.85113672070520   -2.20109368649526
H          -1.31913445760626   -1.79515286481621   -1.89931820331894
H          -0.48403873534123   -1.98734491187898   -3.29639263906347
