    23
        -45.36293460  Gyration_radius:  2.48406133262 Dipole_moment: 1.869
 S           0.83438540913995    0.00031289718716   -0.58976950472129
O           1.31189083838779   -0.74242832375067   -1.70999913547681
O           0.65498388558432   -0.96264075239233    0.60626167095773
O           1.61139385414981    1.13774672336769   -0.17900019700247
O          -0.60365419343117    0.49964435997077   -0.86134251046520
O          -0.63600528581410    2.15101127008285    2.75769880749591
H          -0.58486195648145    2.87509241003095    3.38362222759479
O           1.42854429817702    0.52049915125166    2.47445291930703
H           0.94609164751109   -0.45523432093671    1.45807675850323
H           1.93132280361211    1.05393464750554    1.84436815693913
H           0.63422390521481    1.06338441206538    2.71195111276072
O          -0.22477224838904    3.05613983288358    0.28456478700434
H          -0.56960954247923    2.55441699805550    1.85940655319553
H           0.54791380516483    2.50261844196801    0.06662132070576
H          -0.92413749466956    2.73605268757983   -0.29140533227899
O          -1.81285785845137   -1.70398427934308   -0.70853921744539
H          -1.19652125306542   -0.34102978735877   -0.85385235255354
H          -1.37576240580563   -2.22689872747380   -1.44819900189146
H          -1.41350375632137   -2.01636556558989    0.10886975912900
N          -0.35260166054102   -2.88196413072471   -2.56118958908020
H          -0.63536943493228   -2.81578443895958   -3.53073675581071
H           0.03696797208556   -3.80469139878921   -2.41477165710592
H           0.39193867140203   -2.19983212662798   -2.40708883970279
