    23
        -45.36293460  Gyration_radius:  2.48400591966 Dipole_moment: 1.869
 S          -0.54493974113406    0.86308288956246    0.04837929743971
O           0.99636096457701    0.83857351823678    0.16555873408893
O          -0.87523175788199   -0.51548083512400   -0.56928998943324
O          -1.12668749191288    0.89312003194322    1.36249307558319
O          -0.92072633844881    1.90319839126151   -0.85246731075506
O           0.63045052558068   -2.25068964930557    2.67784776133966
H           0.58661141480443   -2.70396910208755    3.52123242370356
O          -1.82834511464741   -1.66727602751936    1.83011914498020
H          -0.30135284507608   -2.14343834759001    2.37075154931908
H          -1.72114640568576   -0.70021279898412    1.76510482833980
H          -1.92965883917374   -1.96291496010218    0.92147281555874
O           1.23549910483000    0.32422378192043    2.60819795733910
H           1.22824481730933    0.62924103100800    1.15054508610713
H           0.34806895533891    0.67177658260537    2.76950419603396
H           1.15272921151581   -0.66147420240626    2.66838836363563
O           0.89603449140682   -0.57138191196046   -2.35843071528102
H          -0.21762139729790   -0.63514437332925   -1.35127480901054
H           0.65273757991746    0.23376826259512   -2.90990917037739
H           1.64184516922495   -0.30375752327659   -1.81311983275032
N           0.14588417895796    1.69508765506170   -3.47766212083624
H          -0.30927284749468    1.97376260682320   -2.60670804443313
H          -0.55990431942615    1.67931512644768   -4.20289909120774
H           0.82042068479079    2.41058985425013   -3.71783415939855
