    23
        -45.36293444  Gyration_radius:  2.48313509429 Dipole_moment: 1.876
 S           0.62147928642845   -0.65920314380398   -0.47528850761813
O           0.58852579925318   -0.15986563408386    0.98766385637020
O           0.80509704691201   -2.07341328150435   -0.50354486670091
O          -0.79765417631788   -0.33107239159865   -0.99359602353092
O           1.58727359187518    0.14043991778517   -1.17825336535293
O           0.00938846348006    3.53340185473978   -0.35046391573879
H           0.26780467424519    4.43022753722019   -0.56895139397572
O           2.12535887789351    2.16502544559852    0.51841017359152
H           1.90245931116589    1.72976263952199    1.34561220654655
H           2.10643604080396    1.45366918656804   -0.14831406106738
H           0.80344831904065    3.10476585034461    0.04940010858774
O          -1.65215174216477   -1.08805247757645    1.66494346044645
H          -2.15517346467682   -0.78946245378682    0.90141762927383
H          -1.50939752081537   -2.07507783566501    1.53421063836826
H          -0.29164592351336   -0.51558291092752    1.38432452154279
O          -0.30934573512711    1.76020504203237   -2.28840876161485
H           0.61551405586499    1.49242886871961   -2.37380773417885
H          -0.72874590073117    0.53395422660906   -1.55458835841747
H          -0.31733678224483    2.48457484745638   -1.61215576134936
N          -1.05143431268780   -3.57655047254427    1.03445806737249
H          -0.61669871330172   -4.17168581182551    1.72808516127113
H          -0.31745282466657   -3.24078391546277    0.40847785012743
H          -1.68574838073853   -4.14770508776826    0.49036906604520
