    23
        -45.36140464  Gyration_radius:  2.48256338404 Dipole_moment: 3.039
 S          -0.82994073091102    1.11202843751029   -0.27268444291611
O          -0.69602678159714    2.26913800074822   -1.25654963625415
O          -1.28146116926788   -0.08916938722701   -0.92871947925164
O           0.64096849385367    0.87783195634558    0.18158861118237
O          -1.62634167748636    1.52850603233599    0.83887369116547
O          -0.15737852806321   -1.85575911031133    2.91508036980658
H           0.56952673186220   -1.86741109823445    3.54004525525734
O          -1.37707197620858    0.48948816410703    3.27675812103538
H          -2.27323494686384    0.49281174374410    3.61881495514956
H          -0.63956412665354   -1.01188756993258    3.07667946139804
H          -1.42541768343977    0.94025428532079    2.40934863668084
O           1.48040842131341    1.74711757776692   -2.43053028982200
H           0.15835521395261    2.12801633689450   -1.81143937788253
H           2.07649269898740    1.75405213116553   -1.67663246946522
H           1.32267067676241    0.77905491351764   -2.65406463745318
O           0.53059443074772   -1.63430658654940    0.37792208688708
H           0.74392065254458   -0.13208130508414    0.30728750862922
H           0.30902264880961   -1.82413770882429    1.32549435614549
H          -0.31636679535426   -1.59187669172067   -0.08857169027030
N           0.82933254857177   -0.78950830219788   -2.71604684145797
H           1.36351651466865   -1.43905009743609   -2.15114262275329
H           0.67309648259168   -1.21497106780780   -3.62069828885669
H          -0.07510109880545   -0.66814067411889   -2.26081329693888
