    23
        -45.36401753  Gyration_radius:  2.40239135157 Dipole_moment: 1.945
 S          -0.40734844429182   -0.25603435758909    1.28443468164414
O           0.21083618630970   -0.19127394275993    2.56677087537988
O          -0.26380614206166    1.13072683225210    0.61619675052381
O           0.41769609037091   -1.18686299662590    0.35473686708354
O          -1.77483084357223   -0.67724237704482    1.21069687764952
O          -0.58160117206336   -1.39812865323419   -2.26115618194939
H          -0.08401182348149   -1.56852648328781   -1.45009807177359
O           2.60683285713206   -0.66039891876592    1.42346235508330
H           2.78547490319390    0.25648162381105    1.07417903435705
H           2.12981994693997   -0.52941298723154    2.25651640029038
H           1.39310922085463   -1.07361982727255    0.69574066541219
O          -3.08994033005638   -1.13634532089087   -1.03743378160013
H          -1.49254181435917   -1.66909348534827   -2.07400816015370
H          -2.64887174967180   -1.02470329307024   -0.16835536372804
H          -3.93523529526631   -1.54863517612358   -0.85484652050954
O          -1.40746883458574    1.02546200493428   -1.62159091202352
H          -0.75074965654131    1.13748999852102   -0.30055965422629
H          -0.96321856859066    0.25076486282440   -2.05109767844259
H          -2.30869825050382    0.70955499599066   -1.46610581185676
N           2.62484839698722    1.85693020101544    0.53062870453610
H           2.90895961654220    2.04185680556152   -0.42305002806133
H           3.01853048603230    2.57984685976837    1.11950090466920
H           1.61221521068185    1.93116362456388    0.57543805772851
