    23
        -45.36293459  Gyration_radius:  2.48370600041 Dipole_moment: 1.872
 S           0.00829725769071    0.64795468799318   -0.79082062241488
O          -0.14726863926186    1.96222694482523   -0.22982468126537
O          -1.12454843000548   -0.23412127556078   -0.21732684463434
O           0.03130489879917    0.54749648880496   -2.21352161560892
O           1.28875863224284   -0.00791869070217   -0.22469869380310
O          -0.03022601805067    0.87358140435383    3.44362720660313
H          -0.10503014100959    1.36768571497410    4.26158084586841
O          -1.94565197283436    1.62419781585167    1.74880657085087
H          -1.36972560776264    1.91454493749588    1.01737717958132
H          -2.39448023732796    0.84469650006180    1.41079679710306
H          -0.81204085968718    1.12281547016711    2.89522599005732
O          -0.11730662283453   -2.49875093602202   -0.66344998422066
H          -0.82965607572314   -1.20648426421842   -0.37811426210154
H          -0.01972011346634   -2.48485036696768   -1.66437729324947
H           0.75993681177101   -2.32498873647321   -0.30928908335789
O           1.78989020545474    1.57448591902917    1.65536641177486
H           1.22336055815407    1.26168589053492    2.40587552483972
H           1.60095579121895    0.56468761260612    0.57658917970904
H           1.27955378766804    2.26548944072644    1.21229273615998
N           0.20472051914442   -2.09251065256414   -3.24876565766409
H          -0.54502781576727   -2.33022093932004   -3.88574853679025
H           1.08074284143653   -2.30834177658883   -3.70769818418846
H           0.17316122011680   -1.08336119898771   -3.09390297322657
