    23
        -45.36140463  Gyration_radius:  2.48279330263 Dipole_moment: 3.036
 S          -1.15949293350052   -0.68749145342977   -0.42807747901441
O          -0.73580808591679    0.16442525743042    0.80471122303137
O          -1.17190449587331   -2.07507373134938   -0.08499396984981
O          -2.58831707451293   -0.22010096453716   -0.68240763115975
O          -0.28733515682447   -0.33866816659558   -1.52113742581347
O           2.77454713607076   -1.55627258687623    1.36220547826032
H           3.02952923415509   -1.41232695070099    2.27510677211207
O          -2.45964202271812    2.25179287614142   -0.17208381419024
H          -2.63116894013477    0.79593142442084   -0.52839337492444
H          -2.17771993870738    2.21261135446167    0.74591009116556
H          -1.64172113378494    2.49153023996091   -0.70640827127215
O           1.67530828077053    0.51438342808565    0.15240816262527
H           2.18657467765099   -0.20911893249201    0.59760726609045
H           1.44444771832423    0.17462642350123   -0.72394051202161
H           0.25456466982151    0.38421224606607    0.67351719651383
O           0.68094273273402   -3.20758403048134    1.45457636081758
H          -0.05259643075561   -2.79267543479531    0.95671508593803
H           0.77371380590219   -4.08962531996113    1.08922101078772
H           2.03155885126719   -2.20284315353706    1.38749293578056
N          -0.21525950403153    2.51351200697349   -1.52650518923731
H          -0.14877983113121    3.06561959079125   -2.37183207802777
H          -0.19066881322310    1.52785530669776   -1.78713346022821
H           0.60922726441303    2.69528058025825   -0.96655837739040
