    23
        -45.36140467  Gyration_radius:  2.48269598754 Dipole_moment: 3.038
 S          -1.20868962728483   -0.73186656613408    0.06817704918392
O          -1.66541811221964   -2.01513224491719   -0.61706536142452
O          -1.90798758479332   -0.58408781845807    1.30606120945386
O           0.30054125903691   -1.00628387000420    0.33625476727611
O          -1.29635534571281    0.40054678427768   -0.81905116351942
O           1.00599812311438    2.29228969666215    2.38880832021946
H           1.77982705721409    2.13914617816519    2.93353382089805
O          -0.90268118632810    0.72318199943587    3.39547988466405
H           0.28456268655340    1.75078729415744    2.78494383155654
H          -1.67009800349241    1.13394540396110    3.79849829333516
H          -1.25270381883984    0.16958898719260    2.66816443550526
O           1.14002509344090    1.33787407582116   -0.06706153858690
H           1.16112837475067    1.77696913496888    0.82158930076601
H           0.78081141416052   -0.11241479235493    0.20796432764942
H           0.27084198928241    1.54012933854532   -0.44164850279637
O           0.32820681036462   -2.61551990400191   -2.04969792011323
H           0.99663663934763   -2.70917173121372   -1.36550160471771
H          -0.92124109598304   -2.32625866273813   -1.25526340245124
H           0.49642348474074   -1.72470904628840   -2.48574197594889
N           0.60007156743385   -0.13131504610713   -2.88320356164750
H          -0.19890373976769    0.19829061371821   -2.34189068820942
H           0.46108877526241    0.13921019024360   -3.84825278144087
H           1.41791524971007    0.35480001506098   -2.53509672965221
