    23
        -45.36293461  Gyration_radius:  2.48406903682 Dipole_moment: 1.872
 S          -0.08981644868602    0.67482433423004   -0.76275039031939
O          -0.15174387808266    0.62722468235081   -2.18695394766028
O          -0.31150432562746    1.95124269713387   -0.13997919172611
O          -1.11036097008993   -0.31590139447652   -0.15623607366640
O           1.27226472170819    0.10522906028497   -0.30431461939608
O           0.12353890897978    0.74470919898758    3.47372372736803
H           0.06314475651111    1.20288485210470    4.31348314887228
O          -1.94857182272094    1.39909936894623    1.92944062717173
H          -1.44503908195840    1.76038158966879    1.17658474706937
H          -2.35622888254958    0.59856200836281    1.58839146182991
H          -0.70856680164303    0.94973315757117    2.98430158959754
O           1.76513966932617    1.65190693564609    1.60701063855500
H           1.27406015406934    1.26777638625405    2.37729550971601
H           1.58875513948600    0.67079038403386    0.50035822423875
H           1.17458357916001    2.31446193063142    1.22412581910839
O           0.04098441346030   -2.47374590412415   -0.75661432786474
H           0.92391084582409   -2.24016877147869   -0.45478792973742
H          -0.75079595237945   -1.25477535825525   -0.37404579632349
H           0.06723688774963   -2.41742099273977   -1.76042638522632
N           0.14840305018439   -1.95269931938141   -3.33919656079467
H           0.05190555887148   -0.95520367979522   -3.14161145607700
H          -0.62468175610069   -2.22563037319593   -3.93266152979559
H           1.00338224456173   -2.08328078278262   -3.86513727495236
