    23
        -45.36293457  Gyration_radius:  2.48404990506 Dipole_moment: 1.869
 S          -0.57157527652771   -0.84528737257376   -0.05317316140288
O          -1.55578512814811   -0.59694521926786   -1.07094719395984
O          -0.72279354639157    0.19755648865223    1.07799525392207
O          -0.54881935837119   -2.14936534077886    0.52431556086074
O           0.81126289744469   -0.51213377485788   -0.65969409555038
O          -0.59036166062660    3.05782802218637   -1.71327116731077
H          -0.93003755741860    3.71286714701730   -2.32497237339054
O          -2.24733346043919    1.83872380360597   -0.04904503903363
H          -2.55079789995845    1.14562323370674   -0.65059605523781
H          -1.34318882168787    0.94592120292181    0.72752769744376
H          -1.64607301959101    2.41545956714665   -0.58559339577878
O          -0.20465704378121    0.74421866363065   -2.97954272729696
H          -0.79138760439939    0.19194810513436   -2.43032471835746
H          -0.38067539884505    2.25715132361726   -2.25091121052459
H           0.68074678484687    0.42235737967683   -2.79017636522985
O           2.11104115947076   -0.22452836075179    1.47799656032857
H           1.44735483533521   -0.40202612958955    0.14125953793478
H           1.48629997724404    0.34580046616041    1.93582071807624
H           2.01558364123624   -1.13364882094161    1.89744962863916
N           1.51822812315815   -2.61603145061750    2.41705113236639
H           1.19900232465482   -2.74171154509125    3.36937009613466
H           2.11309011116700   -3.40099424397238    2.18394689570540
H           0.70087591154091   -2.65278315517444    1.80551444161444
