    23
        -45.36293465  Gyration_radius:  2.4836674404 Dipole_moment: 1.874
 S          -0.08562415095736    0.95040188056685    0.36785704425736
O           0.32627471237219    2.25690214066840   -0.02962409497947
O          -0.94244211929227    0.85586115244560    1.51817117914906
O          -0.80843081911024    0.24532171385785   -0.80310780223392
O           1.17114748332671    0.07683867776630    0.58575685513331
O          -1.25425603126490   -2.96555983010696    1.50249485394267
H          -1.73876963154642   -3.57166928037977    2.06512812039353
O          -2.82420643909056   -0.93214511190085    0.79137226463238
H          -2.78125702759148   -0.81542613913056   -0.16146316068986
H          -1.90458553610004   -2.28894696064110    1.19707728048713
H          -2.27904441251638   -0.20945613587876    1.15390800153283
O           0.43706062473514   -1.24365852843149    2.58717511985044
H          -0.09439575292806   -1.99250831824889    2.21454389022778
H           0.98893216863822   -0.52869649448792    1.40294346714381
H          -0.20254604359719   -0.55363021913028    2.80886021156197
O           1.17764376442434   -0.15901588814439   -2.29753683304578
H          -0.08148552937269    0.05583636062301   -1.50600784027045
H           1.49582199268889    0.77955047606463   -2.46948003418564
H           1.77082977460778   -0.52248882737635   -1.63333623392750
N           1.89257135350875    2.37683362719107   -2.39702144331452
H           1.50002152287540    2.97382910958723   -3.11386903878144
H           2.85457950919281    2.65722869525659   -2.25357145101588
H           1.38216055703553    2.55459789973854   -1.53027034588150
