    23
        -45.36293464  Gyration_radius:  2.48363753173 Dipole_moment: 1.873
 S          -0.57154510534357   -0.78610267780194    0.31840515629380
O          -1.04757065158856   -0.42750992121053    1.62650076819264
O          -0.88854878999285   -2.09489520800525   -0.15191299438394
O          -1.07082554207353    0.24911086814361   -0.71553041544969
O           0.96089916479491   -0.58011666919742    0.31434640696069
O           0.39249939281113    3.12588304385825    1.64269626344305
H           0.37829039110908    3.82049253206767    2.30301780155098
O          -1.88359162018959    2.04703404963309    0.83198510521937
H          -1.07341278941137    2.57131555972562    1.05753873823506
H          -1.43808355550302    1.05914009470849   -0.18948846186048
H          -1.97931317383286    1.39563562461473    1.53973155426679
O           1.32789605258760   -0.45008583007346   -2.17363812776257
H           1.23472215421066   -0.54336645145507   -0.67661471450041
H           0.99766576511317   -1.35134136695326   -2.47420588473720
H           0.62369812202088    0.17217782159644   -2.37863917116236
O           1.05520091251105    0.80625578408508    2.77641342316424
H           1.76315112568531    0.39666113788301    2.27203805588516
H           0.73103128374914    2.31737459777214    2.09628294059068
H           0.25529089005174    0.30488928510498    2.53207609187749
N           0.21240019567107   -2.78515887253506   -2.67851394957575
H          -0.29549789336118   -2.73364636653650   -1.79376581319183
H           0.78315968255877   -3.62073259983895   -2.65809082090271
H          -0.46751603157383   -2.89301444559025   -3.42063198215170
