    23
        -45.36293461  Gyration_radius:  2.48402518912 Dipole_moment: 1.870
 S           0.45785292137997   -0.31637931678295   -0.85750587079981
O           0.32539539028046    1.17578418585163   -0.47546453257190
O           0.18952670831076   -1.04886255202794    0.47744680261576
O          -0.59899930842349   -0.67655574281017   -1.76278974313770
O           1.79492075757971   -0.56315069818208   -1.28871496203901
O          -3.49112386780549    0.46274259052087    0.48188729822873
H          -4.44193216080335    0.43684895819352    0.36346841665182
O          -1.98079851376801    1.64084027485344   -1.34368457726406
H          -2.58861066796254    1.33771816409079   -0.62205832831281
H          -0.60753005669061    1.49274968471863   -0.78668138479485
H          -1.90391450203983    0.89372016851957   -1.95214972384539
O           1.60571848372338    0.37826611527055    1.99423089422282
H           1.29404772542006    1.23779631667171    1.69556738392056
H           0.75679999546882   -0.55995032612539    1.18254934183623
H           2.51957027754636    0.25941095582975    1.59135435635380
O          -2.42655850328889   -1.88580540262988   -0.19309331008157
H          -1.84468183792408   -2.18539395158782    0.51049746771980
H          -3.16400613373558   -0.45211008214474    0.30831730612935
H          -1.82589563959550   -1.56437995143049   -0.89081422480280
N           3.82268142623423    0.04510069234333    0.60610495874434
H           3.27009914170482   -0.20445186423878   -0.21592781319350
H           4.42915441013437   -0.73665794956435    0.81901171481642
H           4.40828396424681    0.83271975062179    0.35844852957145
