    23
        -45.36140456  Gyration_radius:  2.48222162949 Dipole_moment: 3.036
 S           1.32696287920719   -0.14585101622447    0.46958943379453
O           1.17882769304551    0.96750335600698   -0.43352340003560
O           0.07365840404545   -1.05572218025202    0.30742526442378
O           2.46531819955004   -1.06512052230301    0.04081760642328
O           1.50071138710901    0.21011132492552    1.84302126558242
O          -2.53839484055583    1.48665216795771    1.81975245084653
H          -3.29411133971137    0.98214154003738    2.12545225028569
O          -1.52580231590037    0.72241234758186   -0.49310871371898
H          -0.68081727614791   -0.44754012944872   -0.02027879587444
H          -1.99185916863882    1.05399119800352    0.31679882241511
H          -0.75848967802293    1.30016187239257   -0.61225495937720
O           1.43239996273239   -2.37222713113487   -1.85994038764337
H           0.69934431756234   -2.78289316813857   -1.39335799662452
H           1.03749010214368   -1.61407304230474   -2.39006054118207
H           2.14730112685211   -1.62527047833307   -0.76087286992404
O          -0.53049263097136    0.82752414352190    3.44847713379020
H          -1.80595106408525    1.28340356044317    2.44661635296996
H           0.21874997695039    0.52374384243860    2.89673347422567
H          -0.16755503327519    1.50055092792337    4.02750141625403
N           0.38749343105529   -0.19624485253936   -2.91558652380368
H           0.77282764821314    0.40945309760816   -2.19128995430538
H          -0.62157432642794   -0.12868117559222   -2.85605102695687
H           0.67396253528584    0.16597431743122   -3.81586030156932
