    23
        -45.36293467  Gyration_radius:  2.48365944043 Dipole_moment: 1.870
 S           0.35988322273125    0.46433567003066   -0.83698512606857
O          -1.08202379343218    0.32098457136417   -0.29720413109013
O           1.23343744130304    0.17741545759573    0.40576857691210
O           0.55604836049853   -0.57285442768445   -1.81273049780274
O           0.59027230805359    1.80667447092587   -1.26068844562852
O          -0.32543478161912   -3.50426929245011    0.49374868448695
H          -0.36811726156014   -4.44915108613658    0.33828506733242
O          -1.56381000281974   -2.20321302564732   -1.47562603995595
H          -0.87440412386960   -3.08154046393975   -0.20909966645453
H          -2.18118381343273   -1.56998741795032   -1.09981276801185
H          -0.80813382869721   -1.66430462828648   -1.77474051003861
O          -0.82320909628867    1.61114249282243    1.85009851934334
H          -1.10356299889250    0.84956901018578    0.58504782933651
H          -0.01064072411299    1.19730376094461    2.15608402366363
H          -0.55986395700377    2.52018173374678    1.50984420421026
O           1.90070184531590   -2.19157353882212   -0.07379486871510
H           1.57573913089782   -0.79434338139795    0.32514941158617
H           1.14282278908245   -2.73933223116094    0.25449199851502
H           1.73240907442509   -2.04962430581980   -1.01500242687801
N           0.04471379572730    3.80887193883008    0.67982941961990
H           0.86214686584365    4.29754392130909    1.02281635300679
H          -0.62384937740110    4.50310139879293    0.37095329703622
H           0.32605895520575    3.26306939261773   -0.13643290449722
