    23
        -45.36514205  Gyration_radius:  2.28504561763 Dipole_moment: 7.086
 S           0.30018808396040    1.63788305625146   -1.01235152490833
O           0.46100660355507    2.45546496937523    0.31560252474352
O           1.14113062589237    0.44142017823859   -0.86280019590645
O          -1.12554685605789    1.19042254059103   -1.03458923809921
O           0.65014860166945    2.45197679134198   -2.12301991773217
O           0.11273427925845   -1.29267324425469    2.04355464973578
H           0.21338731263235   -1.75563756243326    2.87633405620854
O          -1.32219030839952    1.03707584836588    1.59743284994206
H          -1.60535484571843    0.98998001411877    0.66795501869594
H          -0.94947624860672    0.16599348676413    1.81861678924823
H          -0.17419597579195    2.03299994373361    0.94532021422695
O           2.09137497896724    0.37998960326786    1.57651947605999
H           2.01489081249149    1.28250652094820    1.89512462249567
H           0.91319398075471   -0.70975398372197    1.94924530041789
H           1.88641338168549    0.42990575041241    0.61361371516937
O           0.50406887496910   -2.09640127993948   -0.54840541511585
H           0.99474519771937   -1.26104717795540   -0.70997849231676
H           0.26868360589082   -2.04052861723200    0.39599603311417
H          -0.62475847679405   -1.65962750342120   -1.47237456423485
N          -1.30000868331600   -1.09254837978091   -2.10515442186190
H          -1.26237036611969   -0.06402791999934   -1.68255396156109
H          -2.24631032962795   -1.45842773305273   -2.08964123314723
H          -0.94175425901282   -1.06494528161668   -3.05444629517358
