    23
        -45.36293450  Gyration_radius:  2.48292136419 Dipole_moment: 1.876
 S           0.89966085508625   -0.47045340424333   -0.13103640368042
O           1.83646052084188    0.55725657940117   -0.49511843396040
O          -0.23443301121717   -0.53184875847850   -1.17994837405300
O           1.41945319462784   -1.78480193361204    0.06075093413484
O           0.17296712099899    0.00237929977055    1.14914503323839
O          -0.71785196863324    3.40797066586108   -0.68776856283373
H          -0.62225514733595    4.34111790491955   -0.88500743047815
O           1.15109237379395    2.65251228203839    1.05630536704944
H          -0.06642976351601    3.20634765711931    0.02572265064869
H           0.73516901982493    2.17376184352601    1.77824870852775
H           1.57041322706598    1.96157834308948    0.51067072724782
O          -1.85304054758893   -1.48726990831847    1.01902811853131
H          -2.07248238072818   -1.33180766221105    0.09553823273408
H          -1.43412557809059   -2.40112838281510    1.05451531332072
H          -0.67636472575776   -0.57437108575460    1.21728531550574
O           0.19566000295498    1.61378101673090   -2.40461191571177
H           1.11456976231943    1.60203145514923   -2.10497167640990
H          -0.16428332109918    0.32020518586092   -1.76027684230904
H          -0.25459265184431    2.30992062874882   -1.86163661751991
N          -0.46578483614984   -3.72702655379765    0.92325516508557
H          -0.20863996824698   -4.18747818078652    1.78707797642524
H           0.34953411168725   -3.20818762707150    0.59243102205193
H          -0.67469631896791   -4.44448939511445    0.24040168241022
