    23
        -45.36140463  Gyration_radius:  2.48236140967 Dipole_moment: 3.044
 S          -1.38316162510545    0.09039083686199   -0.28177629772926
O          -0.07852619864919   -0.20219088142458   -1.07999126534183
O          -2.17386466381921    0.97034248433488   -1.24374341400784
O          -2.10208880035426   -1.12405895745636   -0.05490688224549
O          -1.01419121696988    0.81095588572505    0.91063123610422
O           1.48479863845819   -2.73154229554927    1.51523942636326
H           2.11459619062662   -3.28273749473838    1.04774604638066
O          -0.36925016604514    2.38412228725959   -2.30798941046668
H           0.16699624761747    1.69148917207109   -2.70344889215954
H          -1.51965081397963    1.61255910150199   -1.70987970078652
H           0.12130859677791    2.68084244195367   -1.48133512058574
O          -0.91348233287363   -3.42172634424780    0.57168056820054
H           0.59392917384756   -3.01503426090219    1.20432933330923
H          -1.53537450297931   -3.84531773688556    1.16662698726742
H          -1.35973109192906   -2.60778966215641    0.26138977457031
O           1.51758040604591   -0.17300730556351    0.87280472168159
H           0.80020652718727    0.20690927385244    1.39987322126113
H           1.60204557113779   -1.11528998491323    1.16936465288728
H           0.67858081524452   -0.22315311448058   -0.39245770742991
N           0.77931014074361    2.84229400828408    0.01810459794638
H           1.67592225020336    2.39045048434414    0.15325403464078
H           0.08736923922867    2.29729241739844    0.53206263028658
H           0.82667761558869    3.76419963471022    0.43242148985073
