    23
        -45.36401750  Gyration_radius:  2.40184121998 Dipole_moment: 1.949
 S          -0.32172163098025    0.25882381351096    1.31179853299450
O          -0.73911552600890    1.07781246222762    0.06012338749340
O          -1.41790335053360   -0.60004938340747    1.64882400553329
O           0.85838418047715   -0.59775825627539    0.79798168899803
O           0.17905324861224    1.13914562796392    2.31419856177837
O          -1.68195694720380   -0.47110325005304   -2.08371386492254
H          -1.48546656463763    0.28080341288644   -1.50886103123368
O           0.97879778375960    2.85252869403804    0.39193063129965
H          -0.08741287547293    1.88764155410850    0.06765254189507
H           0.90616904964570    2.69708964893426    1.34546049317172
H           1.81122233904417    2.38125409277085    0.10943146714558
O          -2.70807687722372   -2.13538189997885   -0.07569124031363
H          -2.30035828354126   -1.55924932991590    0.60568596344989
H          -2.38375552241335   -0.96810031652787   -1.63786172529329
H          -3.49503023294244   -2.50561529378038    0.32622119036434
O          -0.04122263847943   -2.18690612470749   -0.93165876996681
H           0.52134469368994   -1.28951547816897    0.10109945991479
H          -0.77750290958141   -2.66407740056759   -0.52389262000531
H          -0.48899312288516   -1.57513680198464   -1.56995417796295
N           3.01514587240271    1.21751042536458   -0.16732665883232
H           3.23260393062218    1.01452894126197   -1.13476933991514
H           2.53767537363845    0.40940442873277    0.22247707088883
H           3.88811999001774    1.33635044357731    0.33084443351261
