    23
        -45.36293445  Gyration_radius:  2.48315724667 Dipole_moment: 1.876
 S           1.00167845312372   -0.15933325555035   -0.13337178727111
O           0.38766116555073    1.25708989087313   -0.04977686862952
O           1.51961171198291   -0.53594242565142    1.15358277318207
O          -0.22256976123106   -1.05989000844007   -0.41777685378376
O           1.90583455280381   -0.20356146052797   -1.23567630162866
O          -1.74096043658424   -0.00005713118990    3.09475752999779
H          -1.96333467152817   -0.12223842410512    4.01911665923905
O          -0.39677719301028   -2.11929719662814    2.19652021986127
H          -0.79866930005767   -2.42550477995221    1.37913064747043
H           0.41246793541174   -1.65369907185640    1.91499867573382
H          -1.33066742346393   -0.84558346556971    2.79327666394357
O          -1.33540665113087    0.34420662083474   -2.18729278970426
H          -0.74750181811348   -0.58897161499561   -1.16691754131974
H          -1.28663168254031    1.19115827175603   -1.73401126348128
H          -0.62612468349580    0.36990672622881   -2.89996814694953
O           0.30591242550867    1.54367628791040    2.44012188257525
H           1.00475639968249    0.88335370365526    2.53994114152070
H           0.29867049493607    1.49601193893139    0.95158867866446
H          -0.53105187456123    1.09266149823170    2.71974313688712
N           0.77294231061171    0.40397578564390   -3.76922564762689
H           1.37617277286987    0.18998600018339   -2.97319482406501
H           1.09668010433827    1.27089168023412   -4.17943838349569
H           0.89730719886295   -0.32883955999210   -4.45612759110163
