    23
        -45.36293445  Gyration_radius:  2.4831498683 Dipole_moment: 1.876
 S          -0.31905969377927    0.87961577749423   -0.41383261488643
O           0.14167348225404   -0.32389472477327   -1.26800075074232
O           0.76839500887982    1.80766161846653   -0.26392636508480
O          -1.53672478637686    1.38769414444830   -0.95568164952026
O          -0.58048034611055    0.24976008508952    0.97381454029842
O           3.26750060495188   -0.70337131484706    1.19769539972417
H           4.17205240196058   -0.60565930172430    1.49942392423546
O           1.76404008080081    1.26552140459723    2.18180356469501
H           0.97591082848939    0.89081006519172    2.58408779594495
H           2.74268155124703   -0.00876785077120    1.66266831607665
H           1.45687604702729    1.63485895515264    1.33318920481933
O          -1.83549697006092   -1.80560003279056    0.23794282460632
H          -2.63159278595315   -1.40086255100877   -0.22481909302568
H          -1.23567811104663   -2.08367872567599   -0.46064986778783
H          -1.12798278523679   -0.60273975435362    0.79488716521400
O           2.61970694381197    0.06092371561270   -1.25135338366308
H           1.17169833804741   -0.27799067138364   -1.33525813659960
H           2.47394641775718    0.99751571049874   -1.06185915732833
H           2.93222654431300   -0.33941960453050   -0.40038633599503
N          -3.68655460216209   -0.46571511140228   -1.07707290291867
H          -4.51669729614964   -0.15775561993876   -0.58679229083679
H          -3.96153160537254   -0.73241085383048   -2.01403524643157
H          -3.05490927731728    0.33350463045940   -1.15184495079250
