    23
        -45.36514199  Gyration_radius:  2.28509433354 Dipole_moment: 7.089
 S           0.32357079951438    1.92172201889040    0.02969224004879
O           1.18868768612840    1.77938331489705    1.32935755970600
O          -0.90912942927187    1.15804250036671    0.27112490728339
O           0.10264859013550    3.29663439636083   -0.25249354971868
O           1.09232614903646    1.21617023156896   -1.04011468148443
O          -0.02605680790214   -2.17343788333679    1.06515568002927
H          -0.03886739997095   -2.99645763431855    1.55537837866239
O          -0.68559461217563   -0.10472972958539    2.55414640979048
H          -0.30985165696073   -1.46418567908659    1.70219976420763
H           0.00808658160903    0.36037687624780    3.02787743244340
H          -0.88232534829294    0.45867510462779    1.76960673932367
O           2.16814127570837   -0.53839468208743    0.61913774722338
H           1.65153088525740    0.91153332321716    1.22446064124168
H           1.48753237546068   -1.22633828271433    0.71983740306407
H           1.98618677256818   -0.08940790506348   -0.22441879219978
O          -1.77380182970853   -1.10781978556665   -0.75914794061066
H          -1.06567634575644   -0.52635101165666   -1.97485581953337
H          -1.20549955747848   -1.69910255419305   -0.23214788640887
H          -1.71447956107290   -0.25114126943346   -0.28219885822313
N          -0.49799485165481    0.09919580434828   -2.65647899101642
H          -1.10924097798638    0.78841924488278   -3.08268682463116
H          -0.01491571396540   -0.44008858151646   -3.36742729056897
H           0.22472295677829    0.62730217315062   -1.99600427862853
