    23
        -45.36140463  Gyration_radius:  2.48232677078 Dipole_moment: 3.040
 S           0.30728099465428   -1.15788481955926   -0.75311239248715
O           0.33127987881303   -0.94255659197769   -2.16599468340915
O           1.10061750333912   -0.03146023920594   -0.02720461245754
O          -1.00872318953155   -1.21262005465659   -0.16811218923339
O           1.11839219975159   -2.40555483042202   -0.42104840339054
O          -1.04038231782282    2.99009573082599   -1.39543745054410
H          -0.50042314570932    3.78051559381220   -1.34326196117118
O           0.09443226096677    1.46785232610463   -3.26982666348766
H          -0.65323549084143    2.44511480750606   -2.11915438576549
H           0.26569798506551    0.58651407343454   -2.88008128957804
H          -0.38951199553139    1.30095548318888   -4.08099813059840
O          -0.87757249940674    1.36586694822050    0.67701055796850
H          -0.99976353712163    2.04442847616596   -0.03546517350159
H          -1.44064215846226    0.61840821062262    0.43001455011694
H           0.40322313654286    0.63186284965335    0.31916862483639
O           1.84524059431783   -1.97378828687483    1.96070978039748
H           2.34074035464698   -1.16022645575245    1.83301853789998
H           0.96193513875226   -1.70415076382732    2.35947057038815
H           1.43726840220579   -2.33699511050112    0.55439136192808
N          -0.56395583712489   -1.16067495162158    2.64967201408529
H          -1.14112869938127   -1.66175839319554    3.31270610502920
H          -0.94522553435864   -1.31357287412915    1.71628079370987
H          -0.64554403376052   -0.17037113781403    2.84725443926572
