    23
        -45.36293428  Gyration_radius:  2.48360673362 Dipole_moment: 1.875
 S          -0.12905095900587   -0.66928107801763   -0.76196771029853
O          -0.50788391906544   -0.61318091860124   -2.13601016600842
O           0.01746634173934   -1.97361119410349   -0.17591167138643
O           1.17910154488652    0.13277694228799   -0.57324426654720
O          -1.14962442561161    0.10995173034345    0.09942914062905
O           1.00237010492774   -0.75682132868955    3.32218377914473
H           1.20615482162719   -1.22697946272363    4.13221915813598
O          -1.20561913927672   -1.76137607497322    2.21706025674213
H          -1.81104647845060   -1.04381650101558    2.01222472992968
H          -0.82072722347419   -2.01341541958661    1.35726448540717
H           0.13390916601701   -1.10563456450089    3.00877472821589
O           2.33725792536543   -1.32290697944640    1.10864970262261
H           1.96369095610344   -1.04560846394372    1.98355225356494
H           1.80464945929326   -2.07758730822143    0.82392454003892
H           1.75623315609297   -0.37595369024716    0.11632200875858
O          -0.55324039695427    2.45024574173497   -0.61407819153030
H           0.40154081187533    2.37631984757021   -0.52428498959737
H          -0.74239661799282    2.41418377407855   -1.60121857688224
H          -1.01561004725810    1.10192840809504   -0.13791133939438
N          -0.93754630069946    1.99364204881435   -3.18242232640121
H          -0.26123205406400    2.28835283834317   -3.87550964847195
H          -1.86089859280193    2.12576511966165   -3.57532431147947
H          -0.80749812295366    0.99300651318533   -3.02372158514492
