    23
        -45.36293458  Gyration_radius:  2.48410391594 Dipole_moment: 1.870
 S          -0.05702063528055    0.97875004042069   -0.28920708599976
O           1.06176722622491    1.63995559717342    0.32503768285814
O          -0.96397726597230    0.37126554174575    0.80572553436801
O          -0.86269860382641    1.75331545226990   -1.17553475408444
O           0.49129063517603   -0.26565646287802   -1.02509904864047
O           2.28122078079081   -1.37596162243949    2.35588236860674
H           3.02635220464847   -1.49015838383305    2.94787639226435
O           0.55512853198054    0.58221483114238    2.78976017819935
H          -0.43735424638394    0.40042496204110    1.69426241691215
H           1.13987677881653   -0.21668304411370    2.74675446716933
H           1.04203779424123    1.28746202936422    2.34260751301377
O           3.07066921062291   -0.14664002295636    0.12625875105882
H           2.47817378788884    0.62579837012248    0.18239620345611
H           2.64603175922950   -1.00446523312499    1.51751441217348
H           2.75744765310347   -0.63904753455571   -0.63713883145104
O          -1.65076032981258   -1.57511808842611   -1.21956741698591
H          -1.94639288309982   -1.47790548071928   -0.30940227577503
H          -2.22096987812226   -0.95091437810072   -1.76430309644705
H          -0.32245623702285   -0.87321749627487   -1.19001380578045
N          -2.96269093728093    0.34130095867149   -2.46812311076557
H          -3.89405002114675    0.61320177828140   -2.17949720951640
H          -2.92499988293491    0.39096365165812   -3.47829091932235
H          -2.30662543196513    1.03111454451724   -2.09789836522038
