    23
        -45.36140458  Gyration_radius:  2.4824473957 Dipole_moment: 3.037
 S           0.97626107235187    0.82689301750068    0.60411614780744
O           0.21539047785642    1.51641230133373   -0.40715325112266
O           2.31937231450177    0.50633344278182    0.23476214178786
O           0.98718432165696    1.59946705810196    1.91857340359086
O           0.20006129359963   -0.47065073133043    0.97694227069540
O           0.69356381470938   -2.30916148454996   -2.48154121687391
H           0.59263172681187   -3.25027082435263   -2.32920816105930
O          -1.02444884044751   -0.76368404309604   -1.20864465195937
H          -0.35607854486476   -0.71749201273385    0.15475388649435
H          -0.74319090996507    0.13346462726615   -1.43835793665761
H          -0.46451573940223   -1.37203112196016   -1.75571361074650
O          -1.29423240227302    1.08885874595607    2.87850913109341
H          -1.23248412005927    0.13180540832499    2.94152304084524
H           0.07442638317612    1.47692111605752    2.37651944782876
H          -1.86268361262132    1.28036170158467    2.07098798384116
O           2.95100397934600   -1.61898234896339   -1.23786323780264
H           2.74668746300044   -0.88145203657745   -0.62765638328847
H           1.54997855426734   -2.05782438805878   -2.06449434103716
H           3.69295817626739   -1.31795602195761   -1.76609211369099
N          -2.46939989349433    1.50885197748969    0.55842737076069
H          -2.84272866417577    0.68239858062329    0.10677965022633
H          -1.59246384979751    1.73710907244809    0.09056254388396
H          -3.11729300043359    2.27062797410514    0.40426789538819
