    23
        -45.36293463  Gyration_radius:  2.48390477896 Dipole_moment: 1.871
 S           0.26208480375057    0.91342287067097   -0.37657100158959
O           1.11006790211017    1.52250378678922    0.61146192205994
O          -1.12688474000699    0.62766672016315    0.23927020724113
O           0.08425901011242    1.61837341946627   -1.60378238693624
O           0.82330559835208   -0.50007195790621   -0.65596306920193
O           0.73057915574437   -1.23030706817246    3.25336767278328
H           1.10959483828841   -1.33650591885062    4.12732659936870
O          -0.60337568260436    0.97833048254256    2.66647827527837
H          -1.04037398007246    0.74063266423324    1.26270553327274
H          -0.22223698159386    0.11550072043713    2.97022976127227
H           0.15384081634337    1.52844321979629    2.42498687968423
O           2.62571947699142   -0.51213085663492    1.52202088591785
H           2.22614216648589    0.32714996178754    1.22728531703421
H           1.48567668165594   -1.05718209568530    2.64186380842998
H           2.58592697077810   -1.08488254692602    0.75145152229864
O          -1.23192728136606   -1.53722966633111   -1.67655397653561
H          -1.37916633924293   -0.94874720541753   -2.47887530351216
H           0.06070249373762   -1.01716316722215   -1.11357971341230
H          -1.86750228812456   -1.24765094101481   -1.01522828471575
N          -1.48086115109416    0.28571857205517   -3.56508377504495
H          -0.92977722803364    0.93934612783196   -3.00606467914058
H          -2.37392399260352    0.72066715250519   -3.75983370947819
H          -1.00187022961212    0.15411574584733   -4.44691248509697
