    23
        -45.36293443  Gyration_radius:  2.4831460948 Dipole_moment: 1.876
 S           0.28755190995393    0.94546277957285   -0.26470477809152
O           0.68435005263788    1.59667307977928    0.95383136546059
O           1.18046891045288   -0.29384251685505   -0.50363191182587
O          -1.11159239287188    0.33294050800203   -0.02413085681764
O           0.27523263261246    1.73808464358251   -1.45050137346066
O           0.30352352165178   -1.47292900503779    3.21652465445433
H           0.43290772262509   -1.59427314471123    4.15852082491143
O          -1.11239770860299    0.74125324419728    2.77236840690019
H          -1.84004108520443    0.53732919208326    2.17876879639473
H          -0.29936426660325   -0.69793558857240    3.11616513664885
H          -0.46110023605329    1.20584233219951    2.21480184798801
O           2.26823385699087   -0.48027931797376    1.74813747389536
H           2.09295326026070    0.45619670216659    1.91137723949400
H           1.61523267783456   -0.97620518985116    2.30466159655994
H           1.69213810141892   -0.47925989860402    0.37474519246272
O          -1.12491768102616   -1.35278747226104   -1.89472372652999
H          -1.03123121627399   -0.75947976378698   -2.70149601262124
H          -0.25341860702187   -1.72911398495790   -1.73972376752085
H          -1.24228008832005   -0.36555784386458   -0.76814081779657
N          -0.66759957025251    0.42522054596289   -3.78699087976138
H           0.03719272242802    0.26742970199372   -4.49619678661245
H          -0.27539530905910    1.06337564065415   -3.09254502272727
H          -1.45044718757724    0.89185537633591   -4.22711659142874
