    23
        -45.36401758  Gyration_radius:  2.40185728838 Dipole_moment: 1.944
 S          -1.32811340572406    0.32376639722539    0.14001252600755
O          -0.55717403476015    0.05474891892234   -1.18089245572436
O          -2.01593830912974   -0.88343128821800    0.48997751762357
O          -0.19879422398227    0.58252161168359    1.16366144346983
O          -2.08913577388140    1.52195025747392    0.01393392441435
O           1.08370032784134   -2.22292611778093   -1.12698621516873
H           0.56848781524250   -1.46747481711989   -1.44048566743518
O          -0.90804711044127   -3.28484457729456    0.53537925159563
H           0.43605187237827   -2.89249253608223   -0.86160332134608
H          -1.57639981165367   -3.96219798135813    0.64679888315885
H          -1.39009212518623   -2.43123557115513    0.49723150558980
O          -0.29255770621520    2.46398463594751   -1.76155799445119
H          -0.37425654917389    1.00617943212940   -1.55744670141040
H          -1.13213484832566    2.63026682100678   -1.30745667525146
H           0.41616871350169    2.74741748119812   -1.11978392561565
O           1.10470410021038   -1.55255699797582    1.42551270360710
H           1.36090413821730   -1.76028389805728    0.49109818300024
H           0.34583731279605   -0.28683376966385    1.32298609326058
H           0.46937719999803   -2.24880573203027    1.64410909458166
N           1.39698789329281    2.92925658971896    0.25442960093437
H           2.36956075321204    2.66814416837335    0.15253821683530
H           0.94913147173371    2.24058026686460    0.85282933166600
H           1.36173228002201    3.82426671620518    0.72571468067108
