    23
        -45.36514199  Gyration_radius:  2.28504378858 Dipole_moment: 7.090
 S           0.75892368929918    1.54627286089098   -0.91231292762404
O           1.30777975678961    0.19900699175673   -0.70091644511197
O          -0.71389113102594    1.40804582706727   -1.12424274385914
O           0.91601569156532    2.30236826182534    0.45212077443780
O           1.40784410352264    2.27661287044972   -1.94398721791684
O          -0.41796280588898   -1.30280223643344    1.99645609774719
H          -0.52283631850300   -1.78159918928243    2.81962352054972
O          -1.27020334829660    1.27948038422524    1.45701302623683
H          -1.43670476886368    1.30014569176978    0.49878753755832
H          -1.11716726926637    0.34788871606642    1.69229158716100
H           0.13250154305902    2.01747359181958    0.98443821994457
O           1.90706505834539   -0.07862553205031    1.83298819068956
H           0.49126460124689   -0.90010135045874    2.02113351096978
H           1.84073703049715    0.02047402493736    0.85449484051976
H           1.97946238020071    0.81740953336925    2.17033783747752
O           0.12577371611311   -2.15156424113907   -0.55338370015150
H          -0.76222905534058   -1.48114588654818   -1.59246393263894
H           0.79475459872377   -1.43591995671230   -0.62519778222646
H          -0.21082182583108   -2.05492229554050    0.35641282020195
N          -1.22075535992579   -0.78052172081924   -2.28313011106924
H          -1.02453916481879    0.21407726502424   -1.82532638149495
H          -2.21662270755290   -0.94034634739856   -2.39448252189499
H          -0.74838838404763   -0.82170723281895   -3.18065421950641
