    23
        -45.36140455  Gyration_radius:  2.48242985926 Dipole_moment: 3.035
 S          -1.12152377030236    0.59121898980363   -0.62821925227354
O          -0.86239191635060   -0.31841836589096    0.60876039059042
O          -2.39071815755937   -0.00813666713639   -1.22398940668715
O          -1.38652776990017    1.93075352017622   -0.20567334853731
O           0.00067864911771    0.44541732254932   -1.52081230096084
O           2.19548787184741    1.72116512097376    2.04634600123187
H           2.26586865073340    1.52077138693867    2.98121780598638
O          -0.06575227490209    3.11233430946226    1.78012355192419
H          -0.61630367575929    2.66714401641261    1.10441759055342
H           1.38713222928236    2.27582510465975    1.94839033881906
H          -0.01349535859659    4.02991897502547    1.50590325633572
O           1.65664719936209   -0.33619820243347    0.48548478726387
H           0.15316347877590   -0.41371136883791    0.68588603899306
H           1.57471058717861    0.05619816798941   -0.39542255288935
H           1.96373330005519    0.39484189312677    1.08069933881849
O          -2.05224426111138   -2.48649625378812   -0.86235774717441
H          -2.33265285716800   -1.03240020481687   -1.15100175994475
H          -1.11595385816255   -2.58211239035288   -1.21744542052445
H          -1.97822576189937   -2.50076216189046    0.09576972503504
N           0.44214049246523   -2.36749778920065   -1.70159690853824
H           0.39311229461300   -1.36542021534526   -1.88429996271117
H           0.75721922643257   -2.82759551428015   -2.54589050334432
H           1.14589570185021   -2.50683965314228   -0.98628963196216
