    23
        -45.36293448  Gyration_radius:  2.4832510586 Dipole_moment: 1.875
 S           0.61964466006451    0.44391918025912    0.68430399660885
O           1.36297899958648    1.43819834081380   -0.04034557178221
O           0.95977488816515    0.25028797405901    2.05596906652730
O          -0.89172767919464    0.75406773771878    0.58517522904724
O           0.75906162035368   -0.88813497907579   -0.08805367277371
O          -0.45897889024923    0.98153430216478   -3.38215669977507
H          -0.34530336094761    1.40137730711735   -4.23629357295339
O          -1.22474680767258   -2.10643185730223    0.87256857406684
H          -1.87607792438034   -1.40721325418729    0.76312405560990
H           0.00033307635289   -1.49145572258732    0.25624694090665
H          -0.99822999226859   -2.12329599191333    1.85248836477326
O          -0.86064496730154    2.47715576730098   -1.23663206001176
H          -0.84955008464862    1.95418300762113   -2.07831418879446
H          -1.01286067884257    1.46806851235157   -0.15180321765908
H           0.06479542700317    2.67295710306191   -1.03779963987561
O           1.91161635962161    0.25893940811186   -2.40130516917091
H           0.43215472406978    0.65450250565058   -3.11191556584759
H           1.87454758464626    0.77112972843205   -1.57232915114905
H           1.87404559864996   -0.65976067571079   -2.12214559989283
N          -0.46942275519286   -1.81579882344236    3.38177335207299
H           0.12568696209341   -2.51602264809051    3.80579915874428
H          -1.11797032691973   -1.49168634477128    4.08813002757957
H           0.12087356694928   -1.02652058751241    3.11351533374986
