    23
        -45.36514202  Gyration_radius:  2.28506093615 Dipole_moment: 7.088
 S           0.76814245217168    1.70514780014298   -0.54926504623808
O           1.29130283742229    0.54825547855353   -1.33742224733458
O           0.86269864827407    2.94311405157447   -1.24015087074166
O          -0.59517765505630    1.36869568999992   -0.11428404494171
O           1.64300676978487    1.75533705886860    0.75077170553208
O          -0.47971643313740   -1.68023911741348    1.67483856970633
H          -0.65990117865645   -2.28967388810990    2.39178448886072
O          -0.55393760518950    0.83497309844510    2.44896118490043
H          -0.55416524034988   -0.76601185552145    2.05970582038127
H           0.25375455130592    1.24001830103825    2.77372315934144
H          -0.65388821907876    1.16663413892432    1.52608411259832
O           2.01060771535007   -0.83277639152968    0.79905173221309
H           1.19353732225381   -1.27383118736766    1.08966227398339
H           1.89461968123784   -0.62716830520500   -0.14468185600979
H           1.88275591251554    0.81155577882733    0.92449142023884
O          -2.02309362736141   -0.82464415516155   -0.42353641060004
H          -1.58209617510032   -1.34844588300235    0.27039878096219
H          -1.73912382633227    0.09521090947706   -0.22867682801471
H          -1.26329372545415   -0.82257728387421   -1.74291621832261
N          -0.60168769377304   -0.58597140329578   -2.57016578320577
H          -1.05573521143774    0.06948775939900   -3.19832934618883
H          -0.29797148875619   -1.41311658510189   -3.07343031404771
H           0.25936218936409   -0.07397400966898   -2.08661426307270
