    23
        -45.36293444  Gyration_radius:  2.48304152151 Dipole_moment: 1.877
 S           0.52788351832506   -0.87647595959600    0.01714561361448
O           0.15584307693032    0.06897933981284   -1.14827345207976
O           1.89676219495632   -1.26360525548004   -0.08726700088720
O           0.35740923184979    0.01760008872478    1.26689362682748
O          -0.45014473370051   -1.92966009988192    0.04201791796079
O          -3.51750600894189    0.34930623278265    0.33209296034563
H          -4.45582655821717    0.15794960086792    0.37375801408608
O          -2.38769034879420   -1.06784178668677   -1.62235289732375
H          -3.17143596130389   -0.12669153852480   -0.46024761160632
H          -1.86149730905590   -0.48251770990160   -2.17367002283192
H          -1.73579104568550   -1.54778642095770   -1.07863447542936
O           1.43309483916870    2.11154586276877   -0.41520589814929
H           1.14634595544280    2.12451925046504    0.50282065266498
H           2.37765120646688    1.76598330949727   -0.40575324891526
H           0.65920553888784    0.94771111866969   -0.96651280176988
O          -1.87762647499020   -0.78771051077316    2.06972099093642
H          -2.53776225648722   -0.27849145460118    1.53399173356797
H          -1.74695733497377   -1.62206932067843    1.59945815030222
H          -0.55086891600733   -0.22320427089418    1.69676884829576
N           3.75751727940343    0.87409904208896   -0.28577126044664
H           3.27556926312129   -0.02206133501709   -0.19643846390921
H           4.36480498008762    0.98099177636910    0.51698588245399
H           4.34101984354561    0.82943004093735   -1.11152725764663
