    23
        -45.36293442  Gyration_radius:  2.48321431694 Dipole_moment: 1.876
 S          -0.90856749781553   -0.04574675558905   -0.46753076572871
O          -1.61493962658026   -1.13971148872681    0.14125307259597
O           0.48342271222359   -0.57312028550090   -0.88575124928696
O          -1.53797976821912    0.59874683326695   -1.57338274233992
O          -0.57706897213653    1.01711415704085    0.60516959680952
O           1.02108711837905   -1.90939607068908    2.81450258982411
H           1.06061103634221   -2.57680128807887    3.50140323323997
O          -1.07382644696435   -0.29840684850615    2.68151836104006
H          -1.65478379648556   -0.88122454020552    2.17439914437914
H          -0.25052455430895   -0.82294023628774    2.85217347591902
H          -0.74398738272456    0.58540031765190    1.52899856366240
O           1.68864295341635    1.62865510878493   -1.08706522695572
H           1.40095833154645    2.01339900269995   -0.25377918517164
H           1.06664230471579    0.26213478138085   -1.02983539692917
H           1.15251032942980    2.08723427045795   -1.80398874203435
O           0.27888463898157   -3.02255439570181    0.50907358653138
H           0.89073192694736   -2.75580341621884   -0.18222119054902
H           0.83420291269294   -2.38825587689484    1.97194094941443
H          -0.51987615461332   -2.48534642342169    0.35324431106615
N          -0.01546342400563    2.64672004783105   -2.82217202226449
H          -0.72797934355684    1.98434982391938   -2.51089537217375
H           0.13544567566269    2.49493890195696   -3.81136690914738
H          -0.38814297287697    3.58061438086834   -2.70568807193226
