    23
        -45.36140460  Gyration_radius:  2.48253356223 Dipole_moment: 3.040
 S          -1.22345202440654    0.21829708137945   -0.67573191526221
O          -0.17403980958927   -0.22358183813284   -1.55928262167622
O          -2.22603976501900   -0.76033985545983   -0.39242458446532
O          -0.55646924875394    0.69861610410131    0.64698291839629
O          -1.89187023831526    1.48721655839092   -1.19327270817111
O           0.71293466278448   -2.84836547335449    1.82969587742832
H           0.83699473201066   -2.81527759690820    2.77970001169744
O          -0.22280313237571    3.28186700408536   -0.57616939911458
H          -1.26510351921601    2.28257576074470   -1.01321997878571
H          -0.20465863188129    3.16438811643365    0.37754258149606
H           0.61851437919043    2.85628707072737   -0.92694506534001
O           1.52515573221982   -0.71846057352974    0.50172373254877
H           1.28025383182835   -0.91034580815673   -0.41474759826348
H           0.32618411263775    0.18763761845995    0.72409613129949
H           1.32919813619974   -1.54473835951945    1.01341096568127
O          -1.92016898552787   -2.66519557770297    1.44120663736161
H          -0.26111081941952   -2.82814995108398    1.68293964426294
H          -2.08313159414190   -1.92339324459620    0.82381385802939
H          -2.38077486853981   -3.41829296020831    1.06600195403725
N           1.79943226787120    1.83352774609767   -1.44374735638578
H           2.36603320918050    2.10536460997617   -2.23675139160013
H           1.19811520709499    1.06184683422545   -1.73160168418234
H           2.41680633618384    1.47851674402099   -0.72322000900288
