    23
        -45.36140455  Gyration_radius:  2.48243284244 Dipole_moment: 3.035
 S           0.10146543217407   -0.88227687516190   -1.10099926222046
O          -0.54150749600662   -0.90549189435044    0.31715665281282
O           0.27417188464441    0.49738344080629   -1.48028931052125
O           1.29736209165238   -1.66525376005506   -1.11036080628907
O          -0.95563549650617   -1.56911833061668   -1.95874581393406
O           2.56274909011453    0.58137927074764    2.24974433494965
H           2.49002177967670    0.31739771348579    3.16852753587072
O           0.30922577740475    1.33515557742947    1.10348939511307
H           0.56432219758983    1.51304776029863    0.18694225902921
H          -0.26907506633999   -0.02939413319638    0.76909321720435
H           1.15377401099591    1.15090411257698    1.58901122572665
O          -3.11616103211368   -0.72556805695764   -0.95457605365101
H          -1.88408983886189   -1.26038640597681   -1.64178062149142
H          -3.01418015722057   -1.04987328855305   -0.05560249108552
H          -2.91230517763450    0.25890292976846   -0.92215319682683
O           3.04773842748293   -1.66587543220665    0.89514956596408
H           2.78896859870967   -0.23717820489380    1.75020498029841
H           2.37672860836056   -1.74148766272150    0.18662721323753
H           3.89575304794004   -1.76708010059366    0.45853676222933
N          -2.21342541859960    1.74749223183098   -0.85552940377894
H          -1.31347096923021    1.49688592081717   -1.26448605202467
H          -2.02996230432474    2.10300207576428    0.07523523352801
H          -2.61246796989877    2.49743312175754   -1.40519536413504
