    23
        -45.36140462  Gyration_radius:  2.48231855539 Dipole_moment: 3.039
 S           0.46148886119460    0.45436241493890    1.25772350887462
O           0.10618860198848   -0.39691705155248    2.34963463974497
O           0.76814075594088    1.85050660239369    1.78828397355479
O           1.52784522524750   -0.03919538213850    0.42311253162859
O          -0.77702104075501    0.69977157252320    0.34613717593876
O          -1.46904787995121   -3.08878109297329   -0.51426136273889
H          -2.38826892108245   -3.16778317757648   -0.77471846837301
O          -1.50897873258606   -2.49645237536621    2.08703691890723
H          -0.98154805502164   -1.68251624886938    2.21865280113933
H          -1.47654024026974   -2.91655257046681    0.45579720837631
H          -1.15576413501510   -3.13546841633635    2.70919728699786
O           0.27496503663726    3.32033636334687   -0.20773623834880
H          -0.65228829062283    3.10559520219432   -0.34132596813238
H           0.62433270226706    2.52721671633681    1.02726675495140
H           0.78349241084770    2.81832295805295   -0.91574981284046
O          -0.20197469635922   -0.97319731223219   -1.45177023472372
H          -0.67137297783851   -1.81061377453752   -1.20414348839203
H          -0.67656003331871    0.06503187431715   -0.44966819677822
H           0.67821572453719   -1.03563611142585   -1.05415696947465
N           1.55547343118623    1.69720486238846   -1.84053835201636
H           2.40238055883380    1.96607554452725   -2.32451512032754
H           0.96956442013125    1.18775462818596   -2.49132642039778
H           1.80727726403425    1.05093475425309   -1.09293215757177
