    23
        -45.36140461  Gyration_radius:  2.48249178488 Dipole_moment: 3.035
 S          -0.60102350621391   -0.90923467136962   -0.90157084469610
O          -1.73829987141375   -0.75080568407520   -1.90475711369500
O           0.26914288964456   -1.95622471234493   -1.33711580984674
O           0.12777492621490    0.46394422928123   -0.99188999495358
O          -1.09931807684607   -1.05219612608114    0.44322817967754
O           3.13125067938687   -0.45509242396053    1.39836302711638
H           3.85970016283786    0.13280130456440    1.19137475224817
O          -2.41855834868751    1.66271240449431   -1.58948045656812
H          -2.10806891777925    0.20607803623081   -1.82908372101061
H          -2.49054240790370    1.68768813232268   -0.58637907153457
H          -1.58848954232146    2.09428294495252   -1.80944572758453
O           2.85983805417978   -2.03812050323582   -0.73203482781823
H           1.93007220598847   -1.98143854150182   -1.03244210008907
H           3.05687267016257   -1.07342016479433    0.63486837116888
H           3.04296462286220   -2.97476704278912   -0.63671353880306
O           0.74622371524123    0.67121932832799    1.44461720786913
H           1.66185003242227    0.29955715324016    1.52581537278558
H           0.44648908665845    0.68106153741362   -0.04452543193455
H           0.14450030452735   -0.06690006408269    1.61718212656708
N          -2.35620637843721    1.43980409975116    1.03472251892453
H          -2.08756800474991    0.45659108197892    1.00217642091964
H          -3.18454037339483    1.52224599406998    1.60991487112864
H          -1.60406390235854    1.94021367761521    1.49317579014296
