    23
        -45.36514204  Gyration_radius:  2.28491018204 Dipole_moment: 7.086
 S           0.66377996143534   -1.57654406468711   -0.93333134126202
O           0.86426087589620   -0.74223631266596   -2.24541732856203
O           1.64633913608501   -1.02106976148943    0.04608527904247
O          -0.68469821570439   -1.25492538703040   -0.44398381278577
O           0.86267215418850   -2.95668577542153   -1.20627993445645
O          -0.90253685070816    2.24531508116505    0.01258814917033
H          -1.28364482047833    3.12166354428514   -0.05568922816835
O           1.56072875602489    1.42345061823193   -0.95722242982464
H           1.83903716231923    0.69941115589178   -0.37021663518433
H           1.14397443002918    0.15246839830238   -1.92944208098670
H           0.77541682631520    1.82655675412942   -0.54794652654014
O          -1.48471049850117    0.12684831920573    1.65262747570025
H          -1.31714638591915    1.01147271292842    1.27871625949046
H          -1.45699051528840   -0.46098623367238    0.86619721135513
H          -0.23541303349821   -0.52278988166324    2.23205821893746
O          -1.68692675173492    0.65293505895839   -1.93131810038903
H          -1.27480635707798    1.71876728985078   -0.74491122186500
H          -1.17282976606176    0.63096730666560   -2.74193186878168
H          -1.42294707121846   -0.15894632591071   -1.43845493886644
N           0.67628794985466   -1.09305179880597    2.37902011402035
H           1.29027055510988   -0.67301625381008    3.06914086675790
H           1.15194178537690   -1.10156724261022    1.37335810711765
H           0.44794066355627   -2.04803720184733    2.63635376608174
