    23
        -45.36293443  Gyration_radius:  2.48316149069 Dipole_moment: 1.876
 S           0.93360058476517    0.19304643494759    0.37100034042692
O          -0.44652905512775    0.12172368774177    1.06440751199321
O           1.56556691967866   -1.08640718984803    0.54408579987297
O           0.57165602913544    0.39417616636364   -1.11856263571417
O           1.65008479237702    1.33852847357677    0.82816149192856
O          -1.25275727521631   -3.16394591124661   -1.01413677074824
H          -1.35591255002087   -4.10805388928205   -1.14386005746812
O          -1.56554481789896    2.05557257971891   -0.09702840598329
H          -0.99255342632045    0.90480113581607    0.68072720126000
H          -0.97183788609179    2.82223558411207    0.17024079374715
H          -1.31744006281657    1.82983412861945   -0.99849599350221
O          -0.40724707294373   -2.67546503813573    1.46603928338575
H           0.41652731113367   -2.20720376043549    1.23576218722033
H          -0.96669262079385   -2.00314843427699    1.86405476588975
H          -1.03021640434309   -3.03688972527639   -0.06099606450124
O           0.89746199906921   -1.94569086047441   -1.95964043484384
H           0.66759951353019   -0.52247055399942   -1.58574002131201
H           1.48915971313302   -2.13082503210703   -1.21803276935089
H           0.04869256304168   -2.41145001100399   -1.74812410098024
N           0.27399908901719    3.81307215930956    0.59456687702536
H           0.94422914657839    3.05552691262841    0.73679800315401
H           0.17927138634683    4.30957490952963    1.47139170518887
H           0.66888215376109    4.45345825380336   -0.08261870664685
