    23
        -45.36140458  Gyration_radius:  2.48277312839 Dipole_moment: 3.034
 S           0.50233426230321    1.20179602472961   -0.55091770468388
O          -0.92906888688223    1.22244413499715   -0.38365568721961
O           0.96822372763107   -0.28080969295485   -0.45205992127971
O           0.90431780025833    1.58469546687089   -1.97097869215474
O           1.22998994833352    2.00806584313824    0.37834951632666
O           0.11373504852217   -0.77269001846922    3.37021411316859
H           0.64895766167044   -1.49725619796915    3.69818695694656
O           1.82685382410547    1.20379644116590    2.84449507345769
H           0.73557919220164   -0.02354742008599    3.21904429816669
H           1.68880619485195    1.48308686178132    1.91669198384615
H           1.77646128440100    2.00755480363315    3.36550751068849
O          -0.93071087948606   -1.12995142579752    0.97426130606342
H          -0.61539437485228   -1.06901378312655    1.91231140579052
H          -1.38489031182637   -0.29477495351176    0.79280804517512
H           0.27072482923389   -0.76200619913058    0.12087515903222
O           0.42683649793527   -0.53171315206652   -3.26732695198453
H          -0.50251262220629   -0.72720221474410   -2.93556209729006
H           0.71472173167540    0.78503471383257   -2.58940827719576
H           1.01002928081344   -1.13928041416980   -2.80424890378723
N          -1.90642579373188   -0.84815171236345   -2.08580918565001
H          -2.78440651047081   -0.78894119330541   -2.58529162089719
H          -1.80117902532991   -0.00269798520161   -1.52534998216074
H          -1.96298288915081   -1.62843793725060   -1.44213633435778
