    23
        -45.36293445  Gyration_radius:  2.48290889883 Dipole_moment: 1.876
 S          -0.83246995557461   -0.35638893022690    0.47707633844630
O          -0.18112201100454   -0.74937132200942   -0.86897382140710
O          -2.24549401981167   -0.24190411739119    0.31982924909247
O          -0.35699397753838   -1.28231029382334    1.46850716798278
O          -0.24768659487273    1.04713956642392    0.75721568430128
O           3.37624552005190   -0.63797493039542    0.89143689671212
H           4.16090147193750   -1.01550456465730    1.29220146826342
O          -0.49061167598719    1.42508893890423   -2.10051441710064
H          -1.49240508505804    1.51611660316088   -2.09982761880869
H          -0.17032755122278    2.01424463970540   -1.41096048377053
H          -0.27969418092494    0.07416156935939   -1.47782351319761
O           1.66557436404814   -2.57682377097065    0.24363755281397
H           2.82455227606284   -1.39883803029672    0.59002218248643
H           0.90833045703119   -2.26857618352365    0.77511687510538
H           1.38643579508152   -2.46100099690716   -0.66853247438711
O           1.52044945392815    0.44971732057871    2.43223702191020
H           0.51114441161646    0.93260127244578    1.44910196917484
H           1.04068116522298   -0.36035553942431    2.65122597230046
H           2.29743107959126    0.16262511819274    1.88816042776330
N          -3.10417967482799    1.49128102021965   -1.76103253583071
H          -3.57118975226230    2.33175599106029   -1.44452450510730
H          -3.01643223919679    0.86195139691829   -0.96128320365901
H          -3.70313927630925    1.04236525263852   -2.44229625309879
