    23
        -45.36293453  Gyration_radius:  2.48292440836 Dipole_moment: 1.877
 S           0.18476136779397   -0.99995563593831   -0.11793174118970
O          -0.05603569775383   -1.98730031991823   -1.11873217612628
O           0.85375427580993    0.24195260282365   -0.75092358617813
O          -1.17347660421319   -0.45519151014922    0.38073808573494
O           0.98855649690238   -1.39135455985997    1.00769997200765
O           0.85387612252433    1.98478108581052    2.81658395755696
H           1.24612368833726    2.28817150280734    3.63688735272433
O          -0.65927003114515   -0.18591839830013    2.82034342872567
H          -1.08770962953582   -0.29759071440260    1.39830879636059
H           0.04913603358244   -0.83916749380401    2.74419179551585
H          -0.20705467820733    0.69327629815338    2.88827774530441
O           2.67272792111976    0.68258684753577    1.36699795758606
H           1.58818649836582    1.59535738860693    2.28440072720931
H           2.20376978967133   -0.16977990413732    1.30003776456228
H           2.67276482026743    1.03160850380378    0.47169804251073
O          -1.11945989013006    1.13419683008313   -2.03593200786850
H          -1.31933913021665    0.36832637217643   -2.65663203349386
H          -1.77149140837985    1.08111797304192   -1.33080354649956
H           0.13114665096364    0.67940336604677   -1.33831559740910
N          -1.52682859441179   -1.09683026564249   -3.38025570230697
H          -1.02445639814054   -1.62153931943207   -2.66215164249072
H          -1.04654531343242   -1.24004375102625   -4.25953131957561
H          -2.45313627980139   -1.49610689830564   -3.46495625271465
