    23
        -45.36140466  Gyration_radius:  2.48238048439 Dipole_moment: 3.041
 S          -1.31107551789373   -0.51574383963766    0.12914824317565
O           0.03919946462392   -0.98781944658299   -0.48644002119572
O          -1.84806745657237   -1.78883034441332    0.77394628044378
O          -1.01326330421035    0.49102496191456    1.11653082883387
O          -2.20379852763698   -0.09967433857145   -0.90678383850759
O           0.91042641889282    2.39656169370937   -2.32274327537115
H           1.52032744535497    2.19710018058285   -3.03500461718433
O          -1.41108745353864    1.29026282689328   -3.03400853679372
H           0.03923591249475    2.03079908619844   -2.60199130864827
H          -1.70503728013700    0.71020638847054   -2.30253909546118
H          -2.15560588328960    1.86527210996375   -3.22156698866762
O           1.35451706736599    1.12103108865431   -0.05650087489739
H           0.69007649801910   -0.20569822353488   -0.38214624180370
H           1.27806355471436    1.66332093818098   -0.88297027570319
H           0.62851473540393    1.40737455364228    0.51592735108830
O           0.24744375501257   -2.87907326412480    1.67253826187217
H          -1.06106921027234   -2.29451959464910    1.20151333022691
H           0.73781147613406   -2.98681772865203    0.85298694887239
H           0.65831025577306   -2.09059963176103    2.14322007775334
N           1.12694009912455   -0.59912646489083    2.65633931865238
H           0.30951790656368   -0.07971033837310    2.33688257897157
H           1.93320708516841   -0.20734004984229    2.18429261561497
H           1.23541297886061   -0.43800057321339    3.64936924872079
