    23
        -45.36293442  Gyration_radius:  2.48305292921 Dipole_moment: 1.878
 S          -0.19820077515158    1.00369013558330    0.01832897373475
O          -0.70514577295586   -0.12070615737666   -0.91403229034857
O           0.31225977628833    0.23306928337376    1.25764068900396
O           0.90868792169270    1.64007627000881   -0.64209113773015
O          -1.28617428542491    1.83774831642144    0.41225948085288
O           2.99839796447630   -1.53659338069062   -1.12000653672038
H           3.85100743501317   -1.68648393527608   -1.53157915437895
O          -1.95687660503934   -1.49792237192700    0.78213544577267
H          -1.27009498160028   -0.74254300559366   -0.32002605430405
H          -1.27612415892481   -1.52205402592635    1.46125335867204
H          -2.64729027792199   -0.84150240304558    1.10494138457267
O           2.77774004778040    0.26985411592623    0.80085683852874
H           2.93234787745512   -0.48935162096665    0.18297998955116
H           2.66257277887791    1.04655838657190    0.23708826321387
H           1.34143674691891    0.17763157057567    1.18393938852538
O           1.48588714421516   -0.00848798580662   -2.69542565180521
H           2.45227689911297   -1.04828805381138   -1.78141781762969
H           0.62442478042384   -0.42060655148514   -2.80260439630474
H           1.33437821265856    0.72144730004990   -2.06681060247411
N          -3.50125432811306    0.48785687566777    1.57101343018957
H          -4.37594675550316    0.65560280741801    1.09023127735041
H          -2.81800927525479    1.15976277779739    1.21734923688470
H          -3.64630037902365    0.68124165254108    2.55397589479636
