    23
        -45.36293441  Gyration_radius:  2.48316487192 Dipole_moment: 1.877
 S          -0.75183567707458   -0.41738735143777    0.55405608408514
O          -0.73327673119676    0.13776993809289   -0.88888122688688
O          -1.44421068146241   -1.66396843508163    0.58777836699529
O           0.74331210524405   -0.67026134173892    0.85560312244411
O          -1.24472521636155    0.62848823876552    1.40818437369894
O           1.35726562439842    3.25636957875276    0.40279308919225
H           1.48423613273514    4.16756773711924    0.67186500286451
O           0.88497012175808   -1.49685205258081   -1.91359092321431
H          -0.11193942412110   -0.48683341573854   -1.42032035053679
H           1.56140821629458   -1.45883396752395   -1.23083486973833
H           0.40316560664749   -2.36937986505705   -1.77824059720326
O           1.25077353702003    1.35690397863736    2.24196116976353
H           1.43676675227682    2.07394670437261    1.58369673596770
H           0.31355088434445    1.44143175304362    2.46296025677972
H           1.07879848201976    0.11758114266584    1.43385616064003
O          -1.21317196062453    2.82443232575208   -0.15518189576802
H           0.41436334409431    3.17819890886597    0.12178615936886
H          -1.28286878711918    2.39766262317994   -1.01334351411147
H          -1.37090696873194    2.11025529861048    0.48977667625459
N          -0.50991724824188   -3.62970452183290   -1.23827186973004
H          -0.97342274015213   -3.09356266755551   -0.50270747866706
H          -0.06726336137316   -4.43090169407517   -0.80608902643145
H          -1.22507201034175   -3.97292292521929   -1.86685545577008
