    23
        -45.36514202  Gyration_radius:  2.28502568884 Dipole_moment: 7.089
 S          -0.90555295997049   -1.38166756541583   -1.03442004376464
O           0.33745691310962   -0.87842951561893   -1.69396969506224
O          -1.83855466280276   -1.94060870374195   -1.94870269187797
O          -0.42731581795535   -2.48213400593012   -0.02533470471039
O          -1.45290068769706   -0.28733288198966   -0.21963996295761
O           1.05380155995386    0.79694038718731    2.02762322852133
H           1.43229997660448    1.05640949659657    2.86862177766686
O          -1.00931069184259   -0.81437162151342    2.30665570276933
H          -1.33188815731516   -0.63886551199971    1.39185145516329
H          -0.85173216377287   -1.76099658795778    2.33844772239074
H           0.27506262745566    0.21527189806717    2.23910369286294
O           1.86674240047503   -1.30942630257972    0.41886121323159
H           1.73049956751334   -0.52683778145409    0.98068121494368
H           0.47191661852281   -2.18340794089850    0.25857447333034
H           1.63633760518828   -1.04352508368064   -0.48809798731134
O          -0.54762215791652    2.14182735625700    0.25434015956188
H           0.13343392250887    1.88672778476120    0.90354352578787
H          -0.08995743167337    1.97275787018212   -1.18782141548626
H          -1.11571584308869    1.34273627320723    0.19526056924291
N           0.11943520756613    1.59198843011582   -2.18242952502078
H           0.96625993134115    1.98621794173784   -2.57886562791423
H          -0.67461950494269    1.76226961555473   -2.79136922530646
H           0.22192375873857    0.49445643911050   -2.03291384606147
