    23
        -45.36293451  Gyration_radius:  2.48297550752 Dipole_moment: 1.876
 S          -0.72607613927778    0.17845635590741   -0.69923793794657
O          -1.56366287109668   -0.98974184110045   -0.70973336066045
O          -1.00702499855974    1.18790358787623   -1.66701054462725
O          -0.74802260444929    0.81819359294138    0.70805412788434
O           0.73584322736451   -0.30278853257373   -0.84685724508467
O           0.16574099901379   -2.77575382378659    2.20708327660341
H           0.00915964695618   -3.62625528504043    2.62056256629014
O           0.16461116655796   -3.04153068483508   -0.44519301180305
H           0.95051112183291   -2.62219353541851   -0.80562175874440
H           0.24707991518245   -2.94806755790462    1.23868940480992
H          -0.55975179684117   -2.41864121503808   -0.64076376456594
O          -1.82038312252515   -1.03889342461797    2.00794743001647
H          -1.17612485557292    0.13264356577407    1.35182153907535
H          -2.21360883876962   -1.38265047043658    1.19460371231531
H          -1.07695286957531   -1.65618207952136    2.22801547781777
O           1.90998901191027    1.74240415505302    0.03610426967072
H           1.32165973037112    0.48414987450051   -0.53684048286112
H           1.60354642931494    2.44700263994144   -0.61307238199195
H           1.38162189474978    1.86576731257711    0.83031154390819
N           0.78214651515765    3.39451091940553   -1.68117580426670
H           1.22362424931664    3.55394467746786   -2.57783826296832
H           0.37480861831513    4.26976344686982   -1.37676804634765
H           0.02126560061835    2.72795831194666   -1.82308076649526
