    23
        -45.36293426  Gyration_radius:  2.48337051682 Dipole_moment: 1.871
 S          -0.77729814270748    0.35884735072602    0.56014855293780
O          -2.17227974711421    0.58708235571582    0.36868806198164
O          -0.41191825775187   -1.07752335754136    0.11953747044509
O           0.01238394480797    1.24491755588328   -0.43050655765225
O          -0.25979399694478    0.54310184802560    1.88843538366531
O           3.37551658148268   -0.33376814486591    1.04808746501459
H           4.16553017183270   -0.38511814348447    1.58836704084435
O           1.35809644251689   -1.57993539790334    2.26550409053485
H           0.74313035078156   -0.82448599936969    2.31065125449576
H           0.94704050926138   -2.19231513243205    1.64955290206777
H           2.69308588441248   -0.88534561353467    1.49987731306975
O           1.94970213604221    1.89523013297749    1.02315043856669
H           2.58410940078936    1.13725858316078    0.95283166576721
H           0.85644821666080    1.58121392393228    0.06125128093295
H           1.41903310423278    1.72029365215679    1.81182726809513
O          -0.65758945762046   -0.79377091444071   -2.37067142639860
H          -1.62724517557088   -0.53881353335366   -2.44972398150626
H          -0.16024153775378    0.02475494263713   -2.45947477972366
H          -0.51020379734387   -1.08917414651906   -0.90437763309956
N          -3.15327046021872    0.04779479348344   -2.24318926592321
H          -3.00937145976130    0.32629912755484   -1.27100449237220
H          -3.90441230807701   -0.63033755794233   -2.26147841393906
H          -3.46045239194259    0.86379369513810   -2.75748362774304
