    23
        -45.36293423  Gyration_radius:  2.48329904538 Dipole_moment: 1.874
 S           0.06062228209414   -0.94796833440711    0.37975251064474
O          -0.40426246126952   -0.66040332831139   -1.06635627855721
O           1.45673614726381   -1.29009907427403    0.37733710208588
O          -0.07488664006426    0.42629503190343    1.07526314772632
O          -0.83695485730357   -1.88462158357943    0.97282558825057
O           2.66319381207890    1.88266218173250   -1.40179723689423
H           3.53685171578907    2.18695252308617   -1.65232154896939
O           1.82203012948193   -0.49290575047110   -2.20865876878037
H           2.11883779875139    0.43885419859736   -2.04868780322469
H           2.22414264776585   -1.02017896412131   -1.50543775257563
H           0.44306403583362   -0.56600624912805   -1.64990830228195
O           2.69468951498388    0.98992748715780    1.10959288825828
H           1.97645371518540    1.39932671496994    1.59938525833520
H           2.38671518921480    0.08197411867355    0.93157051800049
H           2.71265684829593    1.65241029776238   -0.44336307918439
O          -2.33699557281405    1.08879997408979    0.18887817634118
H          -2.91802795385226    0.35083924839868    0.54843929969617
H          -0.99908503968493    0.78709607314183    0.80336020158557
H          -2.18282492815756    0.87760914342335   -0.73677003474427
N          -3.55680917205097   -1.06946497353942    1.08701829054323
H          -3.93998614443052   -1.06681779624818    2.02381011149315
H          -2.66232842267137   -1.56171159149810    1.11838424039999
H          -4.18383265442831   -1.60256936739177    0.49768347190271
