    23
        -45.36293422  Gyration_radius:  2.48330321289 Dipole_moment: 1.873
 S          -0.34443460990793   -0.71432953822577   -0.64638610667272
O          -1.27649603652331   -1.79297328139068   -0.59595146429281
O          -1.10108036528841    0.60945286241772   -0.39127619777308
O           0.62978702676292   -0.80199901843379    0.55111151370820
O           0.45158401899889   -0.59190720314945   -1.83697900735325
O           2.39866490792252    2.51518225900057   -0.72246876811844
H           3.09170892921550    3.02556995386930   -1.14409566638547
O          -0.96148787000589   -0.15995758390249    2.39439809914651
H          -1.65014226641476   -0.88999211955305    2.32899033939251
H           0.06822681516714   -0.58370740305534    1.38487381019277
H          -1.35077150441413    0.61047033174008    1.97004029354432
O           2.93589246046115   -0.08818416293573   -0.91952268696679
H           2.85953714301245   -0.49302691219640   -0.05139505957413
H           2.12452403691922   -0.35593944095364   -1.38953975016640
H           2.69356509946535    1.57359252737704   -0.74443046152337
O           0.11129705407588    2.11318456758773   -1.99066507127133
H           0.92095192344059    2.40466529045242   -1.49938004049259
H           0.38271076939207    1.34452582278099   -2.51003710490484
H          -0.68286859440525    1.32728829228151   -1.00545179254521
N          -2.69712000970768   -2.06876797178124    1.84959333717627
H          -2.32989093608906   -2.13091193832146    0.89845280251278
H          -3.68882405810817   -1.87565615195092    1.78721092181417
H          -2.58533393427886   -2.97657919073723    2.28290805011733
