    23
        -45.36293445  Gyration_radius:  2.48324137323 Dipole_moment: 1.877
 S          -0.22539951899339    0.26113127152321   -0.96290808798649
O          -1.14225841236918   -0.73695874506035   -1.44195617318420
O           1.11220000877034   -0.40921624911162   -0.57329793921489
O           0.04754876602996    1.36144435582420   -1.82851403338141
O          -0.77101266922299    0.77536604067288    0.38934921068469
O          -0.98530520741193   -2.97923870484627    1.66168329786237
H          -1.42992901330374   -3.79908505318271    1.88296617767958
O          -2.73943444286239   -1.23283042086481    0.67238689850245
H          -1.69084104437870   -2.34462111390143    1.39042179426078
H          -2.64370572694205   -0.39418213299596    1.13166054089363
H          -2.31226273619471   -1.09127969934758   -0.19270523996097
O           0.40553784183233   -2.81535228754000   -0.58334947575622
H           0.94806370313580   -1.42881028579792   -0.54064653217816
H          -0.00393520211543   -2.96286550068058    0.30698685064416
H          -0.32712641637261   -2.59844553031313   -1.17541370787541
O           1.34893621134384    1.77619206928551    1.30896210166505
H           1.93542876446548    1.03652406241911    1.12443830036791
H           1.55865237339776    2.47569533847742    0.61729380842197
H           0.02107509861213    1.24264253751995    0.85052228696309
N           1.74676390850444    3.36892093850096   -0.75412120123169
H           1.33388530252303    4.29299255415111   -0.75313283682100
H           1.15905937278216    2.76619292853864   -1.33263960499807
H           2.65405900877176    3.43578361674212   -1.19798644535790
