    23
        -45.36514200  Gyration_radius:  2.28507723366 Dipole_moment: 7.090
 S           0.15638768881005   -1.35125091308886   -1.39601569881589
O           0.47272246160070   -0.24575283170872   -2.46174880361739
O          -0.03423517940850   -2.60189946934342   -2.04281763032168
O           1.31901053338459   -1.34397874958506   -0.45707170855107
O          -1.02084682745351   -0.87997134357712   -0.65236531190096
O          -0.27951103997831    2.29246551583139    0.72466403807503
H          -0.42130599394590    3.21478400099349    0.94168912709682
O          -1.59285063652894    1.55296856439310   -1.43393493167477
H          -1.16344438747243    1.64646809441158   -2.28763453618661
H          -1.51586858079394    0.59565995609947   -1.21181623553655
H          -0.83081417818099    2.10723640086376   -0.08231916752246
O          -1.27434784298029   -0.01407801115797    1.82351911987128
H          -1.45869220736822   -0.34073319127900    0.91567839061223
H          -0.19977543632726   -1.07262015605922    2.03013749106266
H          -0.90926238706676    0.87715477994149    1.67251498425898
O           1.80393590747267    1.23607640216474   -0.76844818290880
H           0.99915965808129    0.43053421896845   -1.96785217542575
H           1.18413202139266    1.67493285301247   -0.16027948291881
H           1.92435848498819    0.32979939111351   -0.43605166050546
N           0.53957731974475   -1.85521875841337    1.89244363843318
H           1.29158594871036   -1.80287807786317    2.57170671438639
H           0.92038810264645   -1.68516997100170    0.86111150419102
H           0.08969656067248   -2.76452871471615    1.92489051789789
