    23
        -45.36293421  Gyration_radius:  2.48358596115 Dipole_moment: 1.873
 S          -0.78382498135070    0.18381355632658   -0.63052371554095
O           0.60649508432790   -0.44390884605329   -0.88257654353452
O          -0.59244811338707    0.94531718377669    0.70123459850811
O          -1.08670912112312    1.12544367824816   -1.65832216523925
O          -1.71212007956758   -0.89659971931074   -0.43801138432880
O           0.18047050049805   -2.56968677640773    2.44482473599330
H           0.00443734116939   -3.36167695921531    2.95514972329933
O          -1.66365253630580   -0.67875832433060    2.28374413808389
H          -0.95453905188884   -1.34094896070414    2.48512644722567
H          -1.00114650219583    0.36372414072754    1.45093171903595
H          -2.17405456290921   -1.05527729490266    1.55437872808583
O           2.03925428370525    1.55358576266769   -0.33632308837787
H           1.61267073156403    1.79938798860150    0.49002007041396
H           1.28756912616719    0.30885044877796   -0.71554803444265
H           1.72401194612222    2.22044145405962   -1.02008947557931
O          -0.14305049693834   -3.07005904546232   -0.15328509526600
H          -0.83003722072509   -2.40164951397740   -0.33276087175308
H           0.62949209059609   -2.76052107118649   -0.63363578909660
H           0.13655571371690   -2.83491804285923    1.49519744431602
N           0.87260605953496    3.13726095195250   -2.09216122779276
H           0.58062796007423    4.07412431671346   -1.84371652823129
H           0.04514972242728    2.53840309448775   -2.08203911679667
H           1.22224207648917    3.16365196808520   -3.04161456900581
