    23
        -45.36293421  Gyration_radius:  2.48355671022 Dipole_moment: 1.873
 S          -0.98560663421711    0.25858178078104    0.08698965531952
O          -1.97881766976982    0.84834302053128   -0.74996039135069
O           0.16122456962492    1.27519274762907    0.29037488482036
O          -1.41769035220456   -0.24125217998685    1.36352969391429
O          -0.29597092548673   -0.90965847730739   -0.65475002037609
O           2.02251320343453   -1.47414542505536    2.51958992232307
H           2.31104286748608   -1.91736795180538    3.31894768600747
O          -0.18969797710145   -2.63080915057414    1.58503984499729
H          -0.76796758577069   -1.84582547082795    1.60345000321310
H          -0.07406475542555   -2.82642923957319    0.65137388466440
H           1.26153007259696   -1.99684192015668    2.17064541650792
O           1.02153084884070    0.42232130906753   -2.33738305836969
H           1.38930076807379    1.07264404409426   -1.73153264153188
H           0.25987509557956   -0.47591299904663   -1.40394370584645
H           0.28851858169191    0.89419586849928   -2.83900979765246
O           0.71775922572475    0.82145004722863    2.69324109550354
H           1.32696689229011    0.04032279306888    2.66870377708219
H           0.48623659197411    1.18271073230781    1.26667472507898
H          -0.16750374523512    0.45888168454097    2.83146430881864
N          -1.08616254849589    1.66381187701543   -3.32147534290484
H          -1.59863791226550    1.47789239696468   -2.45763401336550
H          -1.59956769438489    1.23708627900715   -4.08221502935514
H          -1.08481090695118    2.66480823358680   -3.47212086748396
