    23
        -45.36293444  Gyration_radius:  2.48314521938 Dipole_moment: 1.877
 S           0.65064045530341   -0.13002741502064    0.77883794285650
O           1.97740445878088    0.28325653039661    1.10033871743238
O          -0.08722894717258   -0.81733580011127    1.80327509732763
O          -0.19284420009993    1.09121863380687    0.34560460671925
O           0.69618479992184   -1.00017597000956   -0.49827736353225
O          -3.28259578386098   -1.33048978278338   -0.24932536209968
H          -4.12353933704119   -1.73716369529085   -0.03434395627344
O           0.87737123869605    1.52961008242103   -1.89127831858149
H           0.18584056435554    1.38316905885106   -0.56535141967933
H           1.82940735681851    1.71670368518908   -1.62609353043757
H           0.86691146362234    0.62661997577710   -2.22241681593169
O          -1.04712386821594   -2.70681900853410    0.08240772774643
H          -0.91741735813458   -2.52090222881227    1.02207644477554
H          -1.90888131789716   -2.28099743942902   -0.15870084362212
H           0.00281716292669   -1.75711944555328   -0.38045181506197
O          -2.53595070909533    0.30676551674574    1.71724032029025
H          -1.68475690472894   -0.11939221571437    1.92883458217175
H          -2.29565250903733    1.15934909280432    1.34469232525546
H          -3.10224851217504   -0.67112927729658    0.46257116972601
N           3.31583064121475    1.76894382960362   -0.91777488432553
H           3.63824387471271    2.67679324072068   -0.60759132913150
H           4.09987682000772    1.29094114499722   -1.34373030825050
H           3.03771061115426    1.23818149724307   -0.09054297736785
