    23
        -45.36293443  Gyration_radius:  2.48307044434 Dipole_moment: 1.878
 S           0.18075928694481    0.69971557490006   -0.72438435925206
O          -0.14693238512581   -0.80831319125254   -0.81993000496849
O           0.67015487040409    0.86427878153993    0.73294429212399
O           1.25301213399368    1.02247172300937   -1.60791676334897
O          -1.05223189737483    1.41706018063310   -0.90178341134641
O          -2.95731861166653   -0.31138422459163    1.93898684350201
H          -3.85598423733144   -0.21704248607371    2.25880471569193
O          -2.95289792559365   -0.48620416167642   -0.72082247247887
H          -3.02282721639860   -0.46360972128140    0.96603968452918
H          -2.38275857300702    0.28350934532826   -0.90355124101512
H          -2.42856390809614   -1.24643755541586   -0.98640449154847
O           1.89837028259690   -1.72435952748001    0.32849891831052
H           2.63345065564833   -1.38891310832278   -0.27047052068876
H           1.89292317034493   -1.14131527927701    1.09346517170427
H           0.65529424892608   -1.29550085960285   -0.39856850209885
O          -1.39994450199900    1.82166254407244    1.77557309088273
H          -1.69391032195494    2.13200386316922    0.90858599154502
H          -1.96513182392797    1.03497913964495    1.98458047682275
H          -0.11346064082467    1.25896770829951    1.27861352906475
N           3.60411447868259   -0.54182496681556   -1.29732116455781
H           4.40431883981318   -0.03518946256937   -0.94011690639484
H           2.88858189473111    0.14164340138660   -1.55074728129913
H           3.89098219123588   -1.01619768760680   -2.14407558514967
