    23
        -45.36401760  Gyration_radius:  2.4020769896 Dipole_moment: 1.949
 S           1.11837938412682   -0.52767147291241    0.59860644022218
O          -0.34196608725861   -0.64875063573584    1.09151724724656
O           1.46778256730364   -1.70557724960786   -0.13853008066777
O           1.05771290164693    0.65193081724170   -0.40957775076075
O           1.92872398600780   -0.16345751239031    1.71274538343265
O          -0.56113226271926    0.18035177623856   -2.65499560725649
H           0.09275289310104    0.56737815536807   -2.05743990187372
O           0.30763157685176   -2.47106608736534   -2.38871153075953
H          -0.16893430342895   -0.64472462609626   -2.97706803851865
H           0.80753423347393   -2.22192405018527   -1.58220778750714
H           0.79174244910149   -3.19526169092257   -2.78742678384505
O           1.26940804981406    2.42278466801775    1.33136424905163
H           1.79920783493140    1.80016451433907    1.85132206028831
H           1.14272961554531    1.49478979903986    0.19273304467874
H           0.36190796935442    2.40757180914277    1.74466350069801
O          -1.75787136717035   -1.34713623362062   -0.86651234551051
H          -0.95583531767272   -0.96549478947528    0.31657266392806
H          -1.54733713043960   -0.65123412607527   -1.53991265477414
H          -1.35702291628455   -2.14617995990968   -1.23666603239098
N          -1.14027016698702    1.92204549488943    2.36938569981097
H          -1.96221149449706    2.29638164220878    1.91254304931748
H          -1.26969536719456    2.01344410441161    3.36903191031175
H          -1.08323704761143    0.93163563339366    2.14856327486880
