    23
        -45.36293441  Gyration_radius:  2.48325653864 Dipole_moment: 1.877
 S          -0.50396684266582   -0.87056759973537    0.18483151124091
O          -0.64279789316927   -0.09493538537400   -1.14536091095847
O          -1.80487487496604   -1.23756873130097    0.64023311446347
O           0.45690199059930   -1.92802007926796    0.02718078287575
O           0.11527693244825    0.17454339023241    1.14135730337899
O           3.33815512897739    0.29464720996279   -1.17505049804587
H           4.24373514798640    0.09411757389650   -1.41698969676168
O           2.71599617991491   -0.93110108667998    1.10871225577422
H           1.96264387756357   -1.45432865021115    0.77766934251668
H           3.19330838778990   -0.10492088279756   -0.28426062067504
H           2.32408200363334   -0.29454221554675    1.71253834029320
O           1.35522775933274   -0.98472271864516   -2.37212431736219
H           2.11448918559917   -0.43331346692586   -2.05347008384861
H           1.35019285295078   -1.77192113680953   -1.81118054153326
H           0.14364688330541   -0.37982019819101   -1.75199218857204
O          -1.32918414025789    2.14956450655845    0.54663554657787
H          -1.26518198293126    2.07668030255416   -0.41031701282828
H          -2.24442544784082    1.81063180769616    0.78994961431841
H          -0.43003181105975    1.03616795647814    1.00417991537914
N          -3.60032838284557    0.92037944902041    1.07763164938568
H          -4.38039550982861    0.95784281073671    0.43365853150881
H          -3.97336417614554    0.95432294005002    2.01784841515216
H          -3.13910528838526    0.01686421430808    0.95831955772596
