    23
        -45.36293441  Gyration_radius:  2.48322662979 Dipole_moment: 1.876
 S          -0.40839072663131    0.82150707138661   -0.45226716513177
O          -1.06021567507246   -0.35441190257122    0.31127832505022
O           1.06415821204644    0.77541269570233    0.01651577340161
O          -0.47697618872360    0.51128406666196   -1.85418937988523
O          -0.98585548119949    2.05585991429369   -0.03113911274725
O           1.33114631879172   -2.86030037537505   -1.62996537641242
H           1.54988455721059   -3.51513986396537   -2.29491703915476
O           2.11020291626677   -0.35358415771589   -1.96334928894333
H           1.96225136501562   -1.32148721784247   -1.81054583810232
H           1.37547336111051   -0.06130401724767   -2.51932360927268
H           1.61172301214963    0.31874451792066   -0.73134397627670
O          -1.20244010381390   -2.08420877349902   -1.91915322635188
H          -1.03544314688882   -1.13289734944680   -2.05337193267386
H           0.36546183133357   -2.67965679255363   -1.72467086585601
H          -1.64786559597952   -2.13598693747544   -1.06925898680912
O          -0.05726868836817    0.05467856291179    2.58452293898902
H           0.85519991312555    0.17756501148570    2.30620831995737
H          -0.40825550686487    0.97292011730289    2.79752842276528
H          -0.73815177808804   -0.26799931042817    1.28461126561599
N          -0.95164170286046    2.52784618728018    2.77024304428458
H          -1.03828449420543    2.57278936178489    1.75349699269665
H          -0.34629370604403    3.28419147032895    3.06367029593904
H          -1.86841871233303    2.69417774107631    3.16542040892842
