    23
        -45.36293444  Gyration_radius:  2.48310718858 Dipole_moment: 1.876
 S           0.48390125155404    0.84176844312851   -0.32239225765534
O           0.87488918016607    1.55477757742568    0.86296719502801
O           1.14784226096213   -0.55443256800392   -0.32913634917793
O          -1.02187497299096    0.51732152816338   -0.18813463344521
O           0.73599083009885    1.47614702966983   -1.57480052146654
O          -0.29304831620228   -1.10628668697354    3.36113498929671
H          -0.28096296393626   -1.13437240541459    4.31919171820922
O          -1.21903958989893    1.25219360216817    2.53362731559256
H          -1.91059520474625    1.10926456380677    1.88191195047156
H          -0.72743158794383   -0.25538108739286    3.11332066805600
H          -0.44100885335783    1.52504621021235    2.01292098818187
O           1.95645638574593   -0.65706716829504    2.04236230643669
H           1.94471277411188    0.30836226042569    2.08903760079630
H           1.17094223274677   -0.96033979140617    2.56496416876424
H           1.52752692695834   -0.71992470484152    0.61753342592006
O          -1.16824224376268   -1.35214169360044   -1.86879660990909
H          -1.20785950002893   -0.23162668347266   -0.86860292115394
H          -0.88675680892488   -0.88569091493085   -2.71428283937920
H          -0.40205643617930   -1.85406030622947   -1.57519395873521
N          -0.20312682369433    0.07771623836791   -3.86259123356050
H           0.23176546586960    0.71604567195452   -3.19420689658278
H          -0.83768834663975    0.61798888252622   -4.43683426850978
H           0.52566435007058   -0.28530798724498   -4.46399983717699
