    23
        -45.36293441  Gyration_radius:  2.48316026671 Dipole_moment: 1.877
 S           0.56442165118364    0.85312390939086    0.00832522036386
O           0.78776730306990   -0.51301891251980   -0.68043745078272
O          -0.95267021332300    0.85582843123199    0.30626109541104
O           1.29748937026072    0.83345667723686    1.24467159494995
O           0.85530919253933    1.91151776214889   -0.90254077644568
O          -0.35542680455326   -2.31859264670891    2.66572032032042
H          -0.22211258884502   -2.79772122058445    3.48515780153094
O          -0.91286621809123    0.26695345045383    2.74356256965004
H          -0.84346888456684   -0.72138167044101    2.76434341821292
H          -0.00565858122158    0.59423271642203    2.80867399213988
H          -1.07120293428746    0.61888738892531    1.30498944087751
O           1.99912872108189   -1.75112181316003    1.55256613488646
H           0.53606886705210   -2.21762304937654    2.25441271982572
H           1.98563274152441   -2.02031049853725    0.63018681655446
H           1.90428340628092   -0.78089666028388    1.52850282519428
O          -1.18349246237547   -0.48541462120816   -2.24702628256332
H          -0.98860162833144    0.33044450225697   -2.80211016112551
H           0.03920006194242   -0.59803469980494   -1.38114902684175
H          -1.85412410029711   -0.21930752639020   -1.61094506995173
N          -0.51837607693747    1.79702261925032   -3.38677730687223
H          -1.20016441878956    2.53205191278206   -3.52652324953119
H           0.09625362007738    1.78808433007365   -4.19082828977769
H           0.04260998658481    2.04181961884666   -2.56903631603622
