    23
        -45.36514204  Gyration_radius:  2.28502690118 Dipole_moment: 7.086
 S          -0.24530000702973    1.65802956240974   -0.99461958158227
O           0.18989742914286    2.49811658953370    0.25551867845962
O          -1.53639272747925    1.01098749841423   -0.61007241213662
O          -0.35930954679050    2.50697524956863   -2.12822853275609
O           0.75906234808867    0.59528470246627   -1.14520693641547
O           0.89449979191347   -1.25096343827945    1.86892640526813
H           1.30219289101156   -1.69015669771621    2.61644729814984
O          -0.91605555267255    0.84704155025788    1.95453710779021
H          -1.45433810392313    0.75443927290432    1.14952853750090
H          -0.37773366178446    0.03948766266629    2.02305604390236
H          -0.16406428492795    1.99283623072375    1.02870718024659
O           2.39259194577708    0.68461508364048    0.89955231412117
H           1.90500863839634    0.69913207594219    0.04294421237749
H           2.29044332733851    1.56868122677869    1.25994733929444
H           1.54173986138870   -0.56000219867170    1.56366636386039
O           0.60343494255872   -2.00587360857279   -0.75065820918033
H           0.90264845665281   -1.10975279347505   -1.01931075216071
H           0.65505799872813   -1.97831861921324    0.22248476685287
H          -0.79887344688671   -1.74080542237530   -1.28171269959588
N          -1.70406660335171   -1.28015849159119   -1.66410601326255
H          -2.54214738055444   -1.77783890315134   -1.38204533577577
H          -1.65345432503479   -1.20744320284100   -2.67527802424167
H          -1.68484201056129   -0.25431333941913   -1.23407774071620
