    23
        -45.36293445  Gyration_radius:  2.48328110124 Dipole_moment: 1.876
 S           0.85650715852328    0.36865274235795    0.42027358963090
O           1.77392732444913   -0.73589021394237    0.48850794909702
O          -0.40623931247231    0.04469477266487    1.25142052651822
O           1.34955320235905    1.64787538245125    0.81396003212791
O           0.32034266239412    0.43206318849764   -1.02859876232091
O          -0.67951830918271   -3.40108559376471   -0.76167937146645
H          -0.57737995524014   -4.34036962902777   -0.92326861673236
O           1.37235475451406   -2.06880427891760   -1.82007935018467
H           0.05175826976693   -2.95354412389357   -1.25060179200493
H           1.03672812404456   -1.34407969983087   -2.35446039578315
H           1.69195897496527   -1.64544883680541   -1.00183189120377
O          -0.06285623979220   -2.41282028326921    1.61413064881528
H          -0.38212992276039   -0.96535867848940    1.46786703720099
H          -0.41309323917897   -2.84165237914773    0.79220993223407
H           0.88623019466963   -2.30265336597066    1.46755343338286
O          -1.75586486013905    1.79615049076045   -0.61576760002405
H          -0.53214734860355    1.00631392491542   -0.98594716588629
H          -2.08846135290836    1.30528761829957    0.14157673329644
H          -1.36806013456907    2.64729200003451   -0.24591526868673
N          -0.47170966890530    3.80664918777247    0.50694944187963
H          -0.11924619243843    4.55587182618628   -0.07511498252035
H           0.31043255493671    3.18621278278258    0.72301315475274
H          -0.79308666438021    4.21464317629497    1.37580268795362
