    23
        -45.36293444  Gyration_radius:  2.48336784738 Dipole_moment: 1.875
 S          -0.19163714370163   -0.73882222124839    0.68040791727907
O          -0.27896851430335   -0.72365026147033   -0.86325143711389
O           0.45130796809971   -1.93358882127357    1.12046758765213
O           0.72597334947847    0.46500115932657    0.99515766855915
O          -1.51261825560168   -0.48200857199493    1.18575059240456
O          -2.03765970209217    2.83087334575376   -0.66750818259512
H          -2.77893065212515    3.43785406523335   -0.69723579963122
O          -2.89975489703708    0.32789070746183   -0.97928428196310
H          -2.40065708453579    1.93783296336762   -0.87920272569599
H          -2.37776435934535   -0.10359337447698   -1.66102970620017
H          -2.55968727806236   -0.03504466380034   -0.14051326572920
O          -0.99920361128880    2.15510735554329    1.67050927928786
H           0.11843914431804    1.24689862013340    1.29045068761350
H          -1.32354575495883    2.54090152454271    0.81723253619060
H          -1.61497334913128    1.44176608582816    1.88580713519479
O           2.15535861071949   -0.34691441526252   -1.38651559774136
H           0.68698252512772   -0.60381359081256   -1.19629113330419
H           2.31235157203801    0.37628522577421   -0.77213246085672
H           2.57908433514315   -1.15958579346372   -0.97223928716063
N           2.99260005810805   -2.45281966939669   -0.03894334490292
H           2.13139165424693   -2.44347619655393    0.51022785557735
H           3.77140285514278   -2.38841407462507    0.60444830571565
H           3.05050850975758   -3.34867941856117   -0.50631233259089
