    23
        -45.36293453  Gyration_radius:  2.48311989012 Dipole_moment: 1.876
 S          -0.22324381098430    0.31125677537954   -0.94882617987231
O           0.98771991136157    0.87715993187556   -1.47761298550045
O          -1.33682392490191    0.21609688512753   -1.83503398168458
O           0.12828537970732   -1.08694417917933   -0.39010984664742
O          -0.65507001906385    1.09761483203480    0.31027976213808
O           3.04025934305726    0.56533338373116    1.74414239123223
H           3.94925946105181    0.78966542317781    1.94944235031581
O          -1.85065137949412   -1.40490908130096    1.13431101484681
H          -2.61616216976820   -1.36345378963255    0.48317163583642
H          -0.64677351363349   -1.33964025547313    0.23748385625410
H          -1.82366243746402   -0.54618134831948    1.56678656324180
O           1.43754308865454    2.41276073387586    0.73446756877552
H           0.14275766903063    1.69060873128964    0.59226788212990
H           2.02562536314912    1.79638007685860    1.24076966885588
H           1.68993436961247    2.31215834485534   -0.19318003146259
O           2.92959598686221   -0.75653506326352   -0.56790255622620
H           2.40914750946432   -1.55573468745802   -0.45040280440889
H           2.33818418926926   -0.14394237483876   -1.04313245780016
H           3.06865424771254    0.00229957823430    0.93406267400092
N          -3.64471824563256   -1.04849320682453   -0.76451478436197
H          -4.43742297342103   -0.43399753439864   -0.62797933514194
H          -3.95959876012833   -1.84452325082568   -1.30440362382498
H          -2.95283930448423   -0.54697992491534   -1.32408679069238
