    23
        -45.36293449  Gyration_radius:  2.48297696696 Dipole_moment: 1.872
 S          -0.14664981970410    0.87760359672752   -0.50521050164271
O          -0.46586530638847    1.26241192003709   -1.84105851025320
O           1.03744885871911   -0.11677981350921   -0.51044439661373
O           0.18248484728987    1.92907542661688    0.41801126224294
O          -1.31294096120837    0.03660644742147    0.06273287179671
O           0.78629644966848   -0.34441319075957    3.44288280804405
H           1.05238112104732   -0.15744215267422    4.34451753842495
O          -1.33343533541010    0.87080879946729    2.42755361879388
H          -0.89546665236531    1.68512806328836    2.14578081071447
H          -1.42301661891105    0.29387720514043    1.05738834759185
H          -0.63721048301496    0.33752078811718    2.88906343177579
O           2.33852596956125    0.99484437794595    1.73939064900317
H           1.63616234570254    1.49836792553869    1.28767579167197
H           1.44695522159989    0.09997135146598    2.85967791761479
H           2.67159101170250    0.38884386274856    1.07217135897449
O          -0.14603289229652   -2.12350280045658   -1.46710229667910
H          -0.44185197616497   -1.77594222330049   -2.36329017800195
H           0.67024210634467   -0.98554829054153   -0.92080732467093
H          -0.92471944499739   -2.09874176697090   -0.90300271800627
N          -0.95988871113101   -0.87752846471255   -3.64388281693956
H          -1.91832024510279   -0.94881517012412   -3.96166983760820
H          -0.36294926888714   -0.86702811239467   -4.46109783327683
H          -0.85374020612008    0.02068222087963   -3.16927999295329
