    23
        -45.36293450  Gyration_radius:  2.4831143433 Dipole_moment: 1.876
 S          -0.62552255109073    0.76291957830790   -0.27147371687014
O          -1.28301929346730    1.18727899681620    0.93428489468459
O          -0.78668938935134   -0.77188093470780   -0.36714356535791
O          -1.04549172639237    1.37396126206391   -1.49001054119439
O           0.90174905069136    0.95011241368749   -0.12143470753742
O           0.67746778262113   -1.09527477486116    3.30803137592214
H           0.62838662581062   -1.22881819271762    4.25593779427505
O           1.04562256808489    1.34406347378074    2.35097071931665
H           1.09458770753720    1.12181883581888    0.87905807446465
H           0.12194646582033    1.62880764402783    2.36037133275495
H           1.05081047865672    0.43780541794734    2.75185200257262
O          -1.77340862706268   -1.10827413228772    2.25991220339574
H          -0.24151942231842   -1.20123449280234    2.96406584491740
H          -1.75176731092779   -0.21902141108369    1.86031670165188
H          -1.79392749656691   -1.71108814783857    1.51184771191634
O           1.08357238932026   -1.25935707961508   -1.98150368443050
H          -0.07603059554948   -1.08571675425260   -1.04158266919527
H           0.79938364548837   -0.72827306331217   -2.78703127885893
H           1.76916219986481   -0.74053210724529   -1.55029616507687
N           0.19332519839960    0.37935500006752   -3.84523158497151
H          -0.46223934053149    0.03536672996362   -4.53532399811518
H           0.81166409917729    1.03530385112979   -4.30570596463710
H          -0.33806246811532    0.89267788706043   -3.13991080961852
