    23
        -45.36514205  Gyration_radius:  2.28503925275 Dipole_moment: 7.085
 S          -0.44370288177633    1.61340466697800   -0.99914879328308
O           0.84430600903456    0.99262745527255   -1.43403392199950
O          -0.63964903718400    1.28668716752643    0.42061272502920
O          -0.52155398998661    3.00280421672840   -1.28602503361990
O          -1.56341751926813    0.84624608569770   -1.78379980390347
O          -0.51900371756398   -2.22950121932408    0.78646819172964
H          -0.79962270215140   -3.09500532848286    1.08654204705182
O          -2.51913316956841   -0.52627210542718    0.61605162361662
H          -1.91779834669670    0.25483026014653    0.61376705307592
H          -3.00497130279781   -0.46971724658399   -0.21018234032309
H          -1.33368000300042   -1.65876245067820    0.77841006390184
O           0.78683413806780   -0.19046805069370    2.07258814048892
H           0.13181306169982    0.43711532614906    1.69599983810381
H           0.48349702879203   -1.05678600509067    1.74410464746698
H           1.90519455883626    0.40898714618061    1.23075175811659
O          -0.21711400717982   -1.39432202472041   -1.84004769872898
H           0.46967026449642   -0.70587378262756   -1.81299731380698
H          -0.23177698234514   -1.80669572324607   -0.95893348048367
H          -1.20328918400780   -0.06785000593175   -1.89850258110964
N           2.48106422641763    0.95656750090989    0.49161731909943
H           1.80375166517221    1.01072697808044   -0.38926460168051
H           3.35097008963869    0.49119148694528    0.25432492313778
H           2.65761180137091    1.90006567219081    0.82169720812092
