    23
        -45.36293449  Gyration_radius:  2.48333714913 Dipole_moment: 1.875
 S           1.01301712587932    0.08833056199204   -0.10841081399333
O          -0.15679515883433    0.69267663845804   -0.91896364727708
O           1.99847033344610    1.08802668124977    0.14441645678623
O           0.34929923582171   -0.30620429694772    1.23104082727291
O           1.44436547442968   -1.09634019283760   -0.79886484088243
O          -1.96883225200567   -2.83927334929194   -0.82112603058204
H          -2.25618191818726   -3.68014147436194   -1.18054895952811
O          -0.49311474623978   -1.53906174799853   -2.62030920733995
H           0.31965960240594   -1.45321096360934   -2.08841281654579
H          -1.50994139370606   -2.36520444933083   -1.55513195568048
H          -0.82213446306243   -0.64060949580049   -2.70932076902766
O           0.07082569370462   -2.77115890869155    0.86309327389412
H           0.17740637426129   -1.32466789313535    1.20181828237277
H          -0.76991136401943   -2.85675253123303    0.34541261552707
H           0.78105161470087   -2.75443397359987    0.20760460174923
O          -1.17629987008683    2.12737361764015    0.88199065969046
H          -1.19031638677936    1.46913393019931    1.58319294400286
H          -0.41611731092080    2.74886029861061    1.10015793419498
H          -0.63799256782177    1.33641365861951   -0.27662673326069
N           1.04254619034048    3.46296253918486    1.37620447882236
H           1.36769057347415    3.60714428319169    2.32390803182721
H           1.24286247392215    4.30342172068767    0.84911337375205
H           1.59044274960195    2.70271535701263    0.96976229408443
