    23
        -45.36293449  Gyration_radius:  2.48337629565 Dipole_moment: 1.875
 S          -0.82322128115431    0.15852175391173   -0.58536437886641
O          -1.07741764349360    0.44681780533007   -1.95894197422799
O           0.23643089935485    1.13664388042788   -0.02758105150448
O          -1.94779040313343    0.19091328550360    0.30936267028548
O          -0.12298007903207   -1.21632561130315   -0.48671250853357
O           0.00761273041126   -0.71238739010471    3.47929212956810
H          -0.26522850330701   -0.81568689464064    4.39236084191683
O          -1.03384017202849    1.52299914254148    2.46751730162808
H          -1.52690018363585    1.11793200747909    1.73015806832823
H          -0.32667248973276    0.16905548081672    3.18706830340746
H          -0.33785138122703    2.03280639373276    2.04432706232521
O           2.25957649174589    0.24558286983402   -1.23343951194090
H           2.12516933476390   -0.68798224175926   -1.04489552057807
H           1.99519519103619    0.37513776412633   -2.19521315791335
H           1.12103403650057    0.88093039975718   -0.48647327269971
O          -1.21254381655149   -2.10569892473196    1.58950120735464
H          -0.49434502271537   -1.69210238145149    0.35198597109415
H          -0.69254605915867   -1.71348728495109    2.33644292323461
H          -1.96208437528385   -1.51101301759504    1.45202362156865
N           1.21309038162414    0.51433457649985   -3.63845664092575
H           0.27632955638605    0.50828083434888   -3.23126647467455
H           1.26068683910469   -0.23457887503261   -4.31779534321090
H           1.32829594953836    1.38930643721760   -4.13390025566039
