    23
        -45.36777557  Gyration_radius:  2.48070025511 Dipole_moment: 4.063
 S          -1.18193301509646    0.51548201453269   -0.18112776856054
O          -0.85289629916879    1.57135702140465   -1.15137188282936
O          -0.79855052159965    0.85344072948994    1.16330760625220
O          -2.73105339549680    0.31447942966670   -0.21063188655312
O          -0.56254726513305   -0.74637509390917   -0.61942483812927
O           2.13388858090964   -1.46615694644651    2.36349739177067
H           2.00296786698790   -1.50005425813973    3.31266705376751
O          -2.84883764227426    1.03983105245103   -2.76086096095607
H          -3.39096119071123    1.82082467641045   -2.89262656871283
H          -2.00417479277200    1.35190755339525   -2.37127218366074
H          -2.98980108241805    0.38401732162328   -1.15399793785366
O          -0.08593223724930   -2.50520064615743    1.29047973360714
H          -0.35279420120770   -1.82075522099499    0.63832102164119
H          -0.11238712381030   -3.34081973299098    0.82106075511624
H           1.33496448787508   -1.88671391734972    1.97167528803060
O           1.83262715212277    1.01395609547815    1.45864458123742
H           1.87042709621436    0.83413329650760    0.00699776064062
H           0.85550950961430    1.08556123027274    1.54268706246312
H           2.05325897216328    0.13037860994653    1.84461108590438
N           1.59056734146470    0.63667522327385   -1.05024033585315
H           2.36891676815519    0.57943752472156   -1.69796421780503
H           0.88088367657508    1.35479288410375   -1.30378528011180
H           0.98785733485418   -0.22019884728864   -1.02064548940365
