    23
        -45.36293437  Gyration_radius:  2.48351640696 Dipole_moment: 1.874
 S           0.89893849662898   -0.47865415603392    0.09683566445107
O           0.60231053796568    0.50933081608024   -1.05469654650607
O           0.68373029728330   -1.82541249461773   -0.35716868494569
O           2.18049188071847   -0.17432519560172    0.64427112204972
O          -0.20589677819399   -0.16001260433398    1.13049608545675
O          -2.93104618167943   -1.30699457729587   -1.52194446000837
H          -3.57307129368867   -1.90595053838511   -1.90644719848970
O          -1.76364976835176   -2.45373668450911    0.58226435865244
H          -0.84256780636466   -2.40587837666728    0.26563364192635
H          -1.79594516021466   -1.85076700759268    1.32976374469181
H          -2.60080919806364   -1.74306415734339   -0.70043582667585
O          -0.55662740865851   -1.03276015481639   -2.65715967694011
H          -1.49803313960385   -1.05810198435568   -2.34871559710749
H           0.11157300034771   -0.01823597307325   -1.79519513349453
H          -0.12472535813454   -1.79129530204472   -2.24199535113638
O          -0.08571949771010    2.35448720825798    1.06602518874435
H          -0.22586602484692    0.86540895666563    1.21132015041210
H           0.86125267271741    2.51862018725613    1.36275584608921
H          -0.08640414952871    2.46222516659508    0.11022696346897
N           2.47950546035352    2.46003655694400    1.66587845952253
H           2.59587090506529    1.50007693640486    1.33669831349827
H           2.75891533149775    2.48826372884451    2.63826146363321
H           3.11777317306398    3.04673964958397    1.14332750267797
