    23
        -45.36293445  Gyration_radius:  2.48328822127 Dipole_moment: 1.876
 S           0.87308682387353   -0.37382559160852   -0.37959902297165
O           0.34972600589588   -0.27527761506530    1.07198181881204
O           2.23808232885845    0.03635338463005   -0.43448374277590
O           0.56693027959159   -1.69523216599411   -0.85548091511170
O           0.01143445809044    0.66190218722574   -1.13795925223185
O          -3.20287036820193   -1.52154980170940   -0.18861249477288
H          -3.90619218994949   -2.16022398866068   -0.31601586351680
O           0.25229014727961    2.23242333120436    1.28093374668474
H           1.21503192579477    2.48477633226790    1.13570656460824
H          -0.19822616278619    2.41707212758021    0.45142580236505
H           0.29864831265462    0.73038813675254    1.28264865047171
O          -1.64563057593517   -0.87318968032789   -2.22731002146815
H          -2.33411926763130   -1.03629804064370   -1.53343663815553
H          -0.72760766978592    0.14106735479293   -1.63810225737632
H          -1.01891991638966   -1.60517412688023   -2.15105949559785
O          -1.12030831917020   -2.68796834179812    0.99791712156198
H          -2.50155133747806   -1.98030211904242    0.33272899765475
H          -0.45501880369057   -2.50430338446750    0.30903220656351
H          -0.84610526238792   -2.15584197186141    1.74964081909892
N           2.78946025935158    2.59783314430623    0.66383994550665
H           3.48489292909670    2.58347222266480    1.39904986387508
H           3.06931381947875    3.29621243191125   -0.01336052334130
H           2.80765257336042    1.68768619477851    0.20051467013875
