    23
        -45.36293449  Gyration_radius:  2.48324086915 Dipole_moment: 1.876
 S           0.91858383685876   -0.14798208811875   -0.42472940405619
O           1.34877932332496    1.13807104252280   -0.90144118040515
O           1.75057050285034   -1.26552212271886   -0.73022721657929
O           0.70737422477732   -0.08831744692392    1.10568979979417
O          -0.50830846529722   -0.38687377085356   -0.97025106345991
O          -1.60191355154549    3.12547066961969    0.52437623500506
H          -1.82632915086122    4.05650234163523    0.48400407166375
O          -1.24800252451420   -2.17059178762627    0.64594397372993
H          -0.90625393293276   -1.13822544382463   -0.39085242878967
H          -0.57452355899177   -2.89635654392637    0.46856338900020
H          -0.96512001126839   -1.73891153931088    1.45761537522502
O          -0.89449366631092    2.25603255566055   -1.89410845012025
H          -1.38332823446705    1.45405158543194   -2.09724942812938
H          -1.43968534908302    2.83781930929197   -0.40569228107975
H           0.00258145635897    1.94812676150997   -1.66754848160463
O           0.76637963282138    2.39482970443924    1.45124439859483
H          -0.15354978862112    2.70105051416160    1.24612191750214
H           0.71009774661015    0.90820881581727    1.37875865352905
H           1.26566095468470    2.49817393311431    0.63003092877405
N           0.76166832246523   -3.79182088098879    0.11308883903561
H           1.29500248060393   -4.22740011513561    0.85504922500008
H           1.30470274508391   -3.00222984355556   -0.24048948568388
H           0.67010702942550   -4.46410564959030   -0.63789739645868
