    23
        -45.36777556  Gyration_radius:  2.4808563021 Dipole_moment: 4.062
 S          -0.39866133661387   -0.49383436398677   -1.13689642360200
O           0.89666045580797   -0.89171513032776   -1.70982110580290
O          -0.86161147676205   -1.40022585949477   -0.12061753811811
O          -0.29272126904077    0.88319549102615   -0.62621907088343
O          -1.44483915559448   -0.48624733423883   -2.29721737560976
O          -0.81437682209935    0.35608851012179    3.39191970540761
H          -1.51570296049175   -0.09515815668250    3.86490660935402
O           0.67841713679271   -1.37707523345143    2.03912096023493
H           0.04172568632198   -1.59384809039877    1.32177137603502
H           1.54565499091678   -0.50533033322788    1.24519482690360
H           0.17760436933240   -0.77777603710806    2.64595019017400
O           0.42646594251834    0.12318563731244   -4.07757236941701
H           0.51728502893747   -0.55021823355845   -4.75543368712586
H          -0.97684851286451   -0.11391964249130   -3.07448467710379
H           0.84974057346263   -0.23858864345945   -3.26975229312716
O          -1.99297562442946    1.51981150478570    1.29037847020040
H          -2.08460785028426    2.46853816196185    1.18626177071947
H          -1.44048186841721    1.21774400749344    0.53642788450335
H          -1.25573035574087    0.81794895019276    2.64326423575894
N           1.95362752585846    0.15074919575774    0.44662275158051
H           1.17285548878577    0.80579766644148    0.20217489696922
H           1.98854509588559   -0.42793248910633   -0.41799859835499
H           2.82997494771976    0.60881042243875    0.67201945130193
