    23
        -45.36777552  Gyration_radius:  2.48076309535 Dipole_moment: 4.063
 S          -0.74768066575218    1.06385366276177    0.06899784283555
O           0.17534339315498    1.29109506425251   -1.01038032457329
O          -0.17381832358379    0.17570957656829    1.09373747389139
O          -1.04823646475799    2.43690077471618    0.75108643790178
O          -2.03014512258122    0.50358179212746   -0.38470315387837
O           3.22098730686315   -1.17315226392930   -0.73588555480619
H           3.93167221877610   -0.68007909046698   -1.14945917430073
O          -3.45369374110423    1.61381368360737    1.51218922653122
H          -4.15710642056887    2.14714098796745    1.13539984074122
H          -3.12527056153520    1.03809302741783    0.78879323771773
H          -1.87509663128047    2.30453346037646    1.26153839964548
O           2.44957900240888    0.29542678645733    1.36364066415934
H           2.58122717092109    0.03377633624566    2.27662389823466
H           2.96672494346334   -0.65248092702695    0.05964518194460
H           1.47734149853491    0.35914158307444    1.23870698825816
O           0.98069664874722   -0.96492056473286   -2.15002039654614
H          -0.01036272534916   -1.59935263814305   -1.27966117726355
H           0.75160350024456   -0.03435494751652   -1.92986538111464
H           1.85626878886678   -1.11683842752496   -1.71578480971626
N          -0.77116686735456   -1.78930237687774   -0.49237242603710
H          -0.39435021392652   -1.33117119860944    0.37161028827900
H          -1.03161472403723   -2.76201585105917   -0.37142784134941
H          -1.57290203014877   -1.15939844968432   -0.70240923055330
