    23
        -45.36777558  Gyration_radius:  2.48086443064 Dipole_moment: 4.063
 S          -0.81573545962631   -1.01309417193536    0.06422207188091
O          -0.18232951187143   -1.08868725064154   -1.22489109485029
O           0.05653113540569   -0.36612683251619    1.05856570344883
O          -2.10451294453392   -0.30452695041028    0.02653916709823
O          -1.09276242197842   -2.46930478400019    0.55786049820271
O           3.07802925858250    1.10084994995892   -1.26830352412128
H           3.62640983919758    0.65278991682601   -1.91464229233674
O          -3.17613404296381   -1.66437073006751    1.99124415577489
H          -2.96045157215005   -0.98391658395357    1.31811113450282
H          -3.99483579244126   -2.07662455019072    1.70664456756545
H          -1.76876823237463   -2.38643190316303    1.26350487886984
O           0.57036734398409    1.28944474159108   -2.12746362678506
H           0.30447549710357    0.34899859668466   -2.01858486428706
H          -0.13457589894244    1.80718221646499   -0.95390253821621
H           1.53112944003803    1.30687549790723   -1.89336109624094
O           2.64933423806021   -0.68461908059899    0.67799022788491
H           3.00527387900671   -0.60496761960678    1.56469895476062
H           1.67216338708243   -0.66806925831383    0.77694165775623
H           2.95620650799074    0.45720705848179   -0.53382493327256
N          -0.67891405082051    1.89121767503049    0.01112043361906
H          -1.56598716946920    1.35921001993614   -0.10619313581356
H          -0.80755974547952    2.83791284743422    0.35145515313384
H          -0.16735368379973    1.25905119508117    0.67226849142497
