    23
        -45.36293443  Gyration_radius:  2.48315701676 Dipole_moment: 1.876
 S           0.15468314313843   -0.56991868224803   -0.83536007432543
O           0.98564972566853   -1.67069857664977   -1.19901471221881
O          -0.61988616181972    0.03930462943917   -1.88189390850241
O          -0.78264889814137   -1.01165890896624    0.31204662823556
O           1.00792469841308    0.54444015150412   -0.18663880285589
O          -2.29291508197667    2.69225477140855    0.32036485652623
H          -2.91444675424975    3.39337007471064    0.11799882591841
O           1.52751862117760   -0.58788854836824    2.00168011169178
H           2.02403106921153   -1.40615193392853    1.69245506044645
H           1.30933866291620    0.17117260274481    0.72352348413071
H           0.63656804951524   -0.88240813917708    2.21292292262595
O          -2.87526109487280    0.20019314057099   -0.35197630651554
H          -2.76127584192762    1.11734292598576    0.00569598537628
H          -2.56527744087222    0.23592819893024   -1.26685322484447
H          -1.70033485900264   -0.56531749003320    0.14975313185125
O          -0.31734386084633    2.68602121648667   -1.46901623225189
H          -0.43780851936884    1.77552488767432   -1.79671788584518
H          -1.54222497756507    2.79498369156471   -0.31213773605609
H           0.52601219423600    2.66982698326871   -1.00869723798467
N           2.60172284004112   -2.72234762160360    0.88759529340418
H           3.59094141311899   -2.72417300717890    0.67369044564620
H           2.09660139675879   -2.52476548942440    0.02207694179633
H           2.34843167646716   -3.65503488670166    1.18850243374994
