    23
        -45.36293455  Gyration_radius:  2.48322508307 Dipole_moment: 1.875
 S           0.75474088688244    0.10636928624682   -0.68201907378789
O           1.16566849061419    1.09287208131698   -1.62672533523653
O           0.81810443026311    0.71855277932595    0.73626588605097
O          -0.74806027765590   -0.20747408740982   -0.86563937456610
O           1.45801000324156   -1.14720165384009   -0.69678242216910
O          -0.51835252869312   -2.77255351085276    2.15634558612229
H          -0.46615891233425   -3.64099386934720    2.55866523983750
O          -1.70536040551099    1.94364918630164    0.02740427285449
H          -1.24905805907744    0.63565256097262   -0.55478333590857
H          -1.18381317870652    1.99536026709724    0.83393218555830
H          -1.30864687599082    2.61941370986366   -0.60320735969606
O           1.65206523997943   -1.26498616790901    2.02413639724086
H           1.15463007107341   -0.01966734018545    1.37619109435161
H           0.84040365447710   -1.79889765147070    2.21974241756176
H           2.02141969783439   -1.63808101628715    1.21252369939558
O          -0.49175026935098   -2.99840668247028   -0.49941871452457
H           0.30105105694022   -2.45717445050605   -0.67094556487762
H          -0.59805495678128   -2.92078910338530    1.18385199634613
H          -1.21879661603957   -2.48900357618069   -0.86726860851164
N          -0.36426214271985    3.48675946292636   -1.63744933477955
H           0.13154907778669    4.30579316515988   -1.30876928794093
H          -0.76565210157211    3.70926603654991   -2.53948832123963
H           0.32032370532877    2.74154057404550   -1.77656204200034
