    23
        -45.36293449  Gyration_radius:  2.48326981775 Dipole_moment: 1.875
 S           0.31278365266837   -0.80351672261064   -0.55015868981966
O           1.56172291636710   -0.41574584624285   -1.14685881065932
O          -0.11303070173514   -2.14986239784210   -0.75135588984328
O           0.41277943161919   -0.50150471862935    0.96292876110254
O          -0.80702429854922    0.14926865353068   -1.02832658115177
O           1.51041530851947    3.21249310662070    0.08724229932024
H           2.13248394550793    3.93408423046983   -0.01838003178286
O           2.80660141064155    0.99082697304331    0.78690119568247
H           2.52734691102911    0.43247078749634    0.03781292858126
H           2.02846596913003    2.44707191647236    0.43341705500519
H           2.37702792488565    0.60246416197893    1.55374088059359
O          -2.04400069204850   -0.46399409978914    1.51421603365125
H          -0.55557623912093   -0.49352134278968    1.31041416515742
H          -2.33254166807404    0.10261715073896    0.79250992064290
H          -2.32216118164946   -1.39725652358024    1.26245264100099
O           0.58379066013974    1.96604619706890   -2.05502111396867
H          -0.35096186272649    0.95977609383892   -1.47849465682941
H           0.84347128128000    2.54644913800273   -1.29487908024139
H           1.31397913833591    1.34322609484770   -2.17009271302262
N          -2.51166835545126   -2.88532047023547    0.58164477806162
H          -1.67099210172661   -2.82522621927577    0.00457408933240
H          -3.29600312564860   -3.06891469868318   -0.03137318147689
H          -2.40690832339647   -3.68193148444880    1.19708600065697
