    23
        -45.36514205  Gyration_radius:  2.28488317729 Dipole_moment: 7.082
 S          -0.20907616002079    1.53756015431697   -1.17861618588575
O           0.30679284391044    2.49821669505419   -0.05212764312727
O          -1.21869903861079    0.67294303325000   -0.55069168080555
O          -0.70339297083746    2.29980413711673   -2.27108239950160
O           0.96125239178935    0.68073812826077   -1.53855359913251
O           0.27865167290760   -0.97835975353861    2.19587592034316
H           0.35870195737621   -1.29984825487507    3.09483645065226
O          -1.25466286095347    1.15437291162585    2.02283641790845
H          -1.38797321132653    1.03995595725097    1.05281435088794
H          -0.33241557577621   -0.19421715542054    2.23274676339344
H          -0.84952345449547    2.01954641291981    2.11868242747118
O           2.00751071954348    0.74949987314624    0.88834462110172
H           1.52814965056106    0.05950983683407    1.37907248613799
H           1.93202363055308    0.52286429021804   -0.05464599195554
H           0.99302814732350    1.97163838584932    0.42779750356233
O          -1.17093325116686   -1.89163196956108    0.05541301155940
H          -0.35878064789693   -1.91382030457620   -1.23237764531426
H          -0.61813202275116   -1.81119182343929    0.85440357252555
H          -1.46155827042029   -0.96875806666974   -0.11358187710437
N           0.17611338042976   -1.64587526675314   -2.13795975435403
H           0.54633009137978   -0.61649217253717   -1.93583609064480
H          -0.46861882456458   -1.60905478299455   -2.92111381214304
H           0.94521180304538   -2.27740026547785   -2.33623686557483
