    23
        -45.36777552  Gyration_radius:  2.48081627775 Dipole_moment: 4.062
 S          -0.61591382048958    0.29365618015753    1.10930012283369
O          -0.89818515012246    1.36883308491944    0.19662555156435
O          -0.38727833114260   -0.97469410765753    0.39707815951122
O           0.53998416613557    0.56945757562287    1.97663772823628
O          -1.86125169886300    0.09735619272945    2.03205182568707
O          -0.15363580948501    0.25030704932848   -3.49393723832442
H          -0.76274675960684    0.78565687321711   -4.00539461895913
O          -1.68197160085779   -1.24744294149789   -1.88744357514495
H          -1.77135248518985   -2.19863600341249   -1.96848676235063
H          -1.28808921361761   -1.08788557827720   -1.00183689695156
H          -0.71817066084767   -0.32955614009269   -2.93389041778811
O           1.02106395819481    1.70287388279976   -1.60389348350991
H           1.74128866970282    0.69539892736795   -0.82385646891938
H           0.65607904673929    1.22466184771922   -2.38895657751337
H           0.25636118653387    1.79940916190778   -0.99328289373637
O          -0.34576321389129   -0.83760474823096    3.99979566971746
H           0.21420826708874   -0.34559287550694    3.36181586554700
H          -0.39797300806990   -0.29412505749728    4.78917625478197
H          -1.54020244493246   -0.41101191599711    2.80682298232990
N           2.00516172054859   -0.09486464486730   -0.08863882596999
H           1.86457811783015    0.32397406649043    0.85399251168408
H           2.91766491605819   -0.51756891858906   -0.22024131876796
H           1.20614415828512   -0.77260190063188   -0.11343762395703
