    23
        -45.36777553  Gyration_radius:  2.48078684493 Dipole_moment: 4.062
 S           1.27581557432387   -0.13294002400119    0.22421644656366
O           1.50876253154428   -1.44417641375863   -0.40094599167652
O           2.66824732112867    0.54485539172480    0.43047244245589
O           0.50564064689593    0.70989168225866   -0.70567410648394
O           0.63036684737957   -0.23220311890329    1.50570014493723
O          -3.00792682001866    1.23385223259845    1.31326418056794
H          -3.16020320652182    1.54269600702228    2.20805960496076
O          -1.84911144673999   -1.15771477531243    1.32487494348702
H          -2.38465781964814   -0.32687234805314    1.35796567515786
H          -1.52394551242295   -1.36565078084340   -0.08707500683688
H          -0.94936658546005   -0.88570292825877    1.61367551410964
O           3.67279890278508   -0.71124550392985   -1.68044430398192
H           4.40921079121837   -1.28143156359265   -1.44849952311152
H           2.86044822866244   -1.17316926282400   -1.38156079630896
H           3.18898290064347    0.33185025638224   -0.37279633201520
O          -0.91357965953280    2.63477403017167    0.41248953708112
H          -0.96865329566737    3.29042605391514   -0.28494184735124
H          -2.26454249770412    1.77914949845995    0.96887110402180
H          -0.31145529640716    1.93459293540865    0.07768258601813
N          -1.01899472057359   -1.35675867392337   -1.07676533525183
H          -0.10927162954211   -1.84552116475188   -0.94538567054849
H          -0.68519275367855   -0.37183809110821   -1.20724086208571
H          -1.57337250066454   -1.71686341868139   -1.84594241370725
