    23
        -45.36777556  Gyration_radius:  2.48089379566 Dipole_moment: 4.064
 S           0.40654857619708    0.68593666860193    1.02966659428196
O           0.99315509342900   -0.62071637381521    1.16047889487454
O           0.11498831901831    1.23558118928955    2.46277434706981
O           1.29612823336703    1.64664988281312    0.35861975733036
O          -0.87435662644351    0.63403381339981    0.30535007181917
O          -0.90735653142946   -3.20118743379276   -1.10899512761016
H          -0.78290116234948   -4.02736667686960   -0.63869790250513
O          -2.24423508434312   -1.60681987426579    0.57356435527958
H          -1.69995125062246   -0.78912176419151    0.57819557225197
H          -3.14867795977099   -1.32047739308106    0.43460196859554
H          -1.43545005541790   -2.63091048120817   -0.50529891377605
O           1.35533360786995   -1.80945721097664   -1.18341262757276
H           1.38347318009104   -1.52114603952369   -0.24374614323539
H           0.56704880321460   -2.40418061230248   -1.23945464627043
H           0.92836885267774   -0.52766416995372   -1.74698113418548
O           0.38057632619008    3.74268950968154    1.63359977864602
H           1.09465037442894    4.20118945147465    2.08202460350028
H           0.80322011935647    3.13811545395612    0.98671791699272
H           0.00488261002547    2.20445620986844    2.35842857152207
N           0.53479815116820    0.50406359921537   -1.86983473044858
H           1.15533443346036    1.12244243312427   -1.30718442953429
H          -0.33765956209376    0.53754960449004   -1.29029048932100
H           0.41208154197502    0.80634020406422   -2.83012626770527
