    23
        -45.36514191  Gyration_radius:  2.28484400781 Dipole_moment: 7.090
 S          -0.90034973131445    0.47517641507581   -1.66214090883370
O          -1.96846456055543    0.60131572807095   -2.59055146708741
O          -0.21488567321526   -0.85118355390456   -1.72765777206056
O           0.20911397380079    1.53534154161775   -1.98327490961812
O          -1.29579413823079    0.70465929340180   -0.26497243849026
O           1.59051999466268    0.45475115604142    1.76476742523049
H           2.21490207561598    0.71048150493681    2.44489913768870
O           2.12188726335266    0.09608368285382   -0.93233865409998
H           1.47206641346762   -0.56062168854838   -1.23676710303676
H           1.04395921700456    1.13347144117045   -1.63661549111420
H           2.05458471218344    0.12445193003872    0.03789862826380
O           0.28859806046906    2.51489108668679    0.76957096767751
H          -0.42330547031708    1.94595573650433    0.39366513422622
H           1.13806701781891    1.29099407735080    1.47213929762069
H           0.66477406900110    2.97465290674809    0.01529569327041
O          -0.88142695012126   -0.72212874360856    1.91161755621613
H          -1.05199779467023   -1.84364537196512    0.89605254696476
H           0.04984433843908   -0.46513807547051    2.04264800631911
H          -1.21302267729378   -0.05588619076051    1.27053185195464
N          -1.19969931253657   -2.42232521671482   -0.01020940170683
H          -0.72143916306049   -3.31678121040304    0.01790026619451
H          -0.78568384799336   -1.77297307827961   -0.81323365436477
H          -2.19224779650574   -2.55154338084300   -0.17922470121437
