    23
        -45.36777567  Gyration_radius:  2.48090468549 Dipole_moment: 4.062
 S          -0.45800625338668   -1.16663679925873   -0.34895238320798
O           0.95129604663480   -1.33968898849556   -0.11964971477035
O          -0.77867498691305   -0.90204718880507   -1.76022260871152
O          -1.18461119676281   -2.48798021992475    0.05967767844079
O          -1.01165065227692   -0.08185741143243    0.47857615305793
O           2.36475267195569    1.64772117005531    1.99811492345829
H           3.10123726056223    1.24566244893775    2.46197650770708
O           2.32939080627095    0.88608915585785   -0.54754285850929
H           2.44174902976005    1.24050460492594    0.36898338109532
H           2.02633762336871   -0.04073147502411   -0.42044108265197
H           1.05547395048083    1.42196400494224   -1.02947834828126
O           0.19077030961886    0.30740290194031    2.79642479886935
H          -0.50489242986413    0.68851569867844    3.33505899306183
H          -0.23319716256018    0.05477644159493    1.94712407608493
H           1.56154805876850    1.18187201251168    2.32433068155317
O          -3.13516730103503   -2.04153434234227   -1.68345568196977
H          -2.35423717463831   -1.49736536616616   -1.92137236460145
H          -3.19573141440189   -2.73263863738371   -2.34674043130796
H          -2.06273413028590   -2.45405373609152   -0.37572214583344
N          -0.02028618519438    1.55568145823490   -1.27328907893229
H          -0.53685077043254    1.27160235373074   -0.40676869592244
H          -0.27604460498864    0.77081385435579   -1.90770467929099
H          -0.27047150468070    2.47192804915871   -1.62892709933634
