    23
        -45.36777555  Gyration_radius:  2.48090290631 Dipole_moment: 4.063
 S          -1.03367306842183    0.79217419406779    0.02051778825607
O          -1.95448005781739   -0.01276037895314    0.83815373993066
O          -0.92208708644038    0.31234731069024   -1.33078670217248
O          -1.59426473782148    2.24979289019021   -0.02410846669443
O           0.27840930598583    0.84184260475570    0.68699408121746
O           2.66826885611589   -1.14840161922220   -1.96441364969512
H           2.79343630705853   -1.00382654477133   -2.90391801573470
O           2.34441590738526    1.28348936270106   -0.89611150680289
H           2.97779375470949    1.69782775891507   -0.30750738998829
H           2.59132305159477   -0.25120633616087   -1.56730902695973
H           1.51721036881243    1.18434826599978   -0.37570791123938
O           0.22704170318839   -2.07459498027174   -1.46928287400140
H          -0.28103719245462   -1.24792067314276   -1.62880300338571
H           1.16041772433013   -1.84355703173361   -1.70083465571096
H           0.15970555579627   -2.04158468029335   -0.00739175412985
O          -2.70152405579135    1.97406276558081    2.37197127831584
H          -3.65537015318410    2.07779133262867    2.34645914683245
H          -2.50944209355088    1.08794336464937    1.99717068148570
H          -1.93269306966120    2.43181564132178    0.87816690659873
N           0.02330076505893   -1.71537020956842    1.04590954767243
H          -0.97532686196076   -1.43626365471222    1.13862104315866
H           0.48628833754040   -0.77696253967527    1.10621851271211
H           0.33228673952875   -2.38098686299554    1.74599224033397
