    23
        -45.36777557  Gyration_radius:  2.48083541584 Dipole_moment: 4.063
 S           1.25252079796042   -0.29452551822220    0.19976685948482
O           1.84877299560403    0.29712741330179   -1.00804924529014
O           0.08453030915069   -1.10200986205870   -0.19012735184316
O           2.30887734220839   -1.26398253904773    0.82039958883617
O           0.90803443046284    0.68872515567322    1.19135146038124
O          -2.99351921333790    0.92429222570449    1.57436257439842
H          -3.10123303294947    1.20286481248123    2.48540206555360
O           3.34907674473023   -1.77506024016130   -1.56701244015261
H           4.27131733083946   -1.51568257397588   -1.62548520876720
H           2.73338540117548   -1.71595045071371    0.06058976948368
H           2.82545571907244   -0.94642831176963   -1.60955184162733
O          -1.74341782472574   -1.43890509608350    1.68460420670852
H          -2.57153093407622    0.03623914452871    1.61808777868030
H          -2.15032394198249   -2.27108190309287    1.43715149342416
H          -0.98821013873799   -1.31422718882302    1.06892987040107
O          -1.04680449888345    2.29432064166580    0.39312054317029
H          -0.90267232096254    1.60787765310013   -0.89145233244051
H          -1.83868859057480    1.89022549121848    0.82657189968197
H          -0.27740297709812    1.87349025678326    0.83794882027047
N          -0.60564481187893    0.89777436683874   -1.69286181518986
H           0.42858574199804    0.97447080175004   -1.78302082366855
H          -1.10509245051002    1.00451979545988   -2.56909718023556
H          -0.68601607748422   -0.05407406455734   -1.26162868125947
