    23
        -45.36777554  Gyration_radius:  2.48087224545 Dipole_moment: 4.061
 S          -0.23800618610801    0.94496015790327    0.86348073583552
O           0.77551265133335    0.78668543902122   -0.19289977879694
O           0.24680775565194    0.29605581970990    2.09158646372034
O          -0.37410612304590    2.47289772986386    1.15988960468540
O          -1.52213943724951    0.45309339328514    0.44180676400645
O          -1.17252474332970   -1.55502337953688   -2.91564774897383
H          -2.02976146936141   -1.43326670941323   -3.32734937142352
O          -1.43632829483897   -2.08484069204363   -0.32491171863583
H          -0.05449712563254   -2.04161582571747    0.15548508585593
H          -1.69614063396087   -1.18841562519995   -0.01520715759200
H          -1.38145434042562   -2.00376500463535   -1.30909661460057
O           1.59184296710691    2.37660735296979    2.93994281880111
H           0.40149031956282    2.70635113407798    1.71284224215596
H           1.29984681327332    2.62934884299916    3.81862597905272
H           1.24798679654460    1.47103009273863    2.78401473402637
O          -0.13462812021801    0.89879894890599   -2.66845606382459
H           0.62733113773345    1.20907787330563   -3.16084259969844
H          -0.77466632893112   -0.65635208831577   -2.86374804931403
H           0.12479043717661    0.93059250683557   -1.72154127672211
N           0.93024006466517   -1.69811842826419    0.53885158516872
H           1.16260411770024   -0.84471231837971   -0.02344748995128
H           1.65807862893784   -2.40434892719027    0.54894397918021
H           0.74772113341389   -1.26504027291795    1.46767786704492
