    23
        -45.36777554  Gyration_radius:  2.48086786297 Dipole_moment: 4.061
 S          -0.56546956940723    0.81206932942740    0.84614782406413
O          -1.36282982447462    1.00431737434654    2.17589967968077
O           0.83834731543474    0.81908291890752    1.15918017575314
O          -0.98282741691618   -0.47289890176182    0.26058991653091
O          -0.95276697087092    1.90034226689362   -0.06490942953246
O           2.59912531652168   -2.31493516897421   -0.42347471518483
H           3.33174031283212   -2.47270355493351    0.17448752995005
O          -3.38015731184700    2.14834814111884    0.88577191028884
H          -2.26179994783585    1.29014378576752    1.90764017651679
H          -3.53533824887770    3.04910583565379    1.17865387164989
H          -2.57632150858734    2.17481189205043    0.32383923584270
O           2.35252046544050    0.27805112297112   -0.95050899711651
H           1.09537321744075    0.33719586304072   -1.69759054615128
H           1.98870144437756    0.57198167082437   -0.08549882385345
H           2.54674253528128   -0.68381695114608   -0.82682929275619
O           0.38687214628779   -2.58438795723425    1.05735426077889
H          -0.24371747444098   -3.29881111022059    0.95125759392965
H           1.78587905307525   -2.45556084843175    0.11267622316623
H          -0.10676210376045   -1.75766698273773    0.86288221776838
N           0.01979007020062    0.39195095355473   -1.97111682597115
H          -0.33347772548511    1.29390981106067   -1.58998550661322
H          -0.46224390687250   -0.28362837327064   -1.33103925609318
H          -0.18137985751653    0.25309888309252   -2.95542724264826
