    23
        -45.36777557  Gyration_radius:  2.48085432503 Dipole_moment: 4.063
 S           1.28908243214683    0.12375048027387   -0.13937447890925
O           2.68963015259162    0.29716397198606    0.53091746816096
O           0.73370933345279    1.43131892004986   -0.36411733503525
O           1.48395485365622   -0.63561516509478   -1.38429772309881
O           0.45331309328093   -0.66869380900302    0.77809354873694
O          -2.91594332497930    1.62463228028068    1.07370674790623
H          -3.00720972880889    2.55266827190534    1.29648866560796
O           3.55172891232586   -1.98552575864193   -0.51288880857115
H           2.76373174314413   -1.67643558942997   -1.00902706325145
H           4.30457857103833   -1.85860423511006   -1.09453064303161
H           3.15475065315209   -0.55605060819341    0.39880434325573
O          -0.89577673811796    0.71682927845580    2.57523804277957
H          -2.20081673010989    1.28238791851327    1.65684317923965
H          -1.00209164836194    0.08844854924562    3.29158041862128
H          -0.31435216516944    0.27856969617437    1.91587967690947
O          -1.74821409899204    1.33383963193448   -1.29562006819075
H          -1.52010896463794   -0.11009878603336   -1.36770520863544
H          -2.28397671632104    1.48087510665328   -0.47734516547592
H          -0.83195137398150    1.58491555931884   -1.04194657115365
N          -1.08449567900755   -1.12677427412277   -1.26123861781774
H          -0.76471740375175   -1.18696107754313   -0.26498889605358
H          -0.16584472951448   -1.10395495916695   -1.75039012966201
H          -1.68898044303407   -1.88668540245370   -1.55408139233072
