    23
        -45.36514204  Gyration_radius:  2.28508954216 Dipole_moment: 7.088
 S           1.04048024261740    1.64223424689189   -0.13679801388185
O           1.38479224414247    1.57809078802928    1.39132788073454
O          -0.43382186059056    1.87745820296203   -0.20363412020910
O           1.80090033681796    2.66913205775627   -0.75812778741879
O           1.30300446935846    0.29920272234690   -0.67378693828491
O          -0.62953669068236   -2.03400753198269    1.15158240059594
H          -0.81085180364970   -2.83438554760751    1.64593805931124
O          -0.94027777648984    0.57375458030399    2.03989302054088
H          -1.12296401034005    1.09717205169362    1.24053588505840
H          -0.97814906212292   -0.36138361483379    1.77399238120765
H           0.57270586001570    1.20159377974313    1.81231231982124
O          -0.33801891237431   -1.57385301284782   -1.53582936402918
H          -0.62460450818042   -1.88936711443080   -0.65911452950316
H          -1.09272568865987   -0.33615645326341   -2.00147975930795
H           0.46301095808052   -1.04196615568274   -1.33516585861351
O           1.89428206776639   -1.30187259633479    1.31209747637161
H           0.34381726760688   -1.85657411029789    1.25418711109799
H           1.82583160739164   -0.71832245604136    0.52061722707992
H           2.15913483002736   -0.72038766677434    2.02878976701257
N          -1.41217120923273    0.68120798201835   -2.20376540101734
H          -2.42186370261577    0.76858615508776   -2.25384809308706
H          -0.98041863605064    1.01471363668796   -3.05973564144732
H          -1.00255603283582    1.26513006657590   -1.34998799203134
