    23
        -45.36777557  Gyration_radius:  2.48087631865 Dipole_moment: 4.062
 S           0.93212736915332    0.66099754799188    0.62429014804764
O           1.01667193669962   -0.69516092434652    1.09586425429209
O          -0.44013732667813    1.00819300927042    0.21862339174849
O           1.33048101677607    1.61158802225083    1.79842901019131
O           1.84499835441621    0.93369772992384   -0.49674112702865
O          -2.30535518489770   -2.62681758561298    0.28444331983122
H          -2.34670005303159   -3.28181741852978    0.98334726322730
O          -2.36346223728955   -0.25188688557593    1.51574776304098
H          -3.09688401762068    0.36292603847897    1.45735999138402
H          -2.36910078510203   -1.75469213302895    0.73602551663551
H          -1.59000244382447    0.21316419950266    1.12790349720919
O           2.20493975037929    3.45706774185680    0.10357174032150
H           1.55085118477362    2.47130310495107    1.38116421052941
H           3.13909150454899    3.64455227785690    0.21945450102668
H           2.15134492366560    2.59148256237241   -0.35523900291050
O           0.15735787510441   -2.44984446758703   -0.69843804878979
H          -0.76635752999754   -2.62612189921795   -0.39203494605839
H           0.06727088101493   -1.29122458669505   -1.58832715603229
H           0.58553879092462   -1.98572589005506    0.05536277811101
N           0.05587600217438   -0.25625882537413   -1.99241727394532
H          -0.51137243030184    0.30035897321097   -1.30915693420542
H          -0.24961830243532   -0.17394282197472   -2.95600018993515
H           1.00244072154586    0.13816223032877   -1.81323271669202
