    23
        -45.36777561  Gyration_radius:  2.48079852485 Dipole_moment: 4.063
 S           0.06690178882827   -0.59753706352403   -1.15476209824889
O          -0.47033441282426   -0.73470368125725   -2.61543602878804
O           1.11335451184854    0.38917493839938   -1.15192396622794
O          -1.06307213919108   -0.19028211764892   -0.30304181947967
O           0.53314668932275   -1.92570040217666   -0.72690196429743
O           0.45855943086428    3.05715677878486    1.65407091408726
H           0.87872645720491    3.84353418264797    1.30157286618278
O          -1.45570423691479    2.41243476283803   -0.10055366338295
H          -2.39427651276567    2.47158987126599    0.08632116246127
H          -0.27200753066101    2.84567028263080    1.02939930157123
H          -1.27554709784302    1.46356287423979   -0.27984323810156
O          -1.17610647105937   -3.25852856239229   -2.19624924173726
H          -0.94644441509171   -1.59159677801267   -2.64396058240055
H          -0.71545818202500   -3.86699890242373   -2.77829798816210
H          -0.52696118821693   -2.98332048395082   -1.51398720892804
O           1.99886323658650    0.92246403797775    1.29100916271934
H           1.50828779404163    1.75179596286056    1.51410161756390
H           1.12618967685624   -0.17848184747275    1.70115940975352
H           1.87687002259302    0.81402018479256    0.32130996212046
N           0.36495810813129   -0.98790684483374    1.71143931810879
H           0.67273710919314   -1.68774581849131    1.00489455792359
H          -0.47170676943824   -0.58595491697929    1.22477182636157
H           0.16902413057428   -1.38264645727302    2.62490769090366
