    23
        -45.36777550  Gyration_radius:  2.48078780076 Dipole_moment: 4.062
 S          -1.15326571071666    0.21503353505443   -0.56519700273193
O          -1.37680125973826   -0.79821571702798    0.43080718042273
O          -2.11916353972105   -0.05653872263317   -1.76273492976765
O          -1.43014530032390    1.57272535289035   -0.07078080015841
O           0.22322989037346    0.16741195390662   -1.08600791712454
O           2.03080258838065   -2.44036738576648    1.48780937533751
H           1.76924766125895   -3.32526696627977    1.74816815417025
O           0.33596088498795   -0.63363189160651    2.44986413822598
H           0.77606746189637    0.60076156676927    1.79794856043858
H          -0.42695782942685   -0.81413096529487    1.85634243475716
H           1.00774501331790   -1.31869369968258    2.20977326359088
O          -2.17458015835739    2.52012421293916   -2.39573494995877
H          -3.05850778334227    2.88993458054625   -2.34003041066981
H          -1.85899663886744    2.41737576380321   -1.47244474945275
H          -2.16005263409367    0.78369408559106   -2.26683628508081
O           1.35567234859554   -2.21730198803077   -1.09179344292984
H           1.82025477306673   -2.37444309630929    0.52867399543948
H           0.83844170715225   -1.38239782228041   -1.10959857125149
H           1.99076710500765   -2.14898728909336   -1.80685522610728
N           0.92123002141846    1.42895923482285    1.07153389144564
H          -0.01583353700158    1.85846386199429    0.92645452749829
H           1.05857206920895    0.96119916817216    0.14378631938313
H           1.64631286692673    2.09429223751314    1.31685244452292
