    23
        -45.36514204  Gyration_radius:  2.2850962226 Dipole_moment: 7.088
 S          -1.26926852271993    0.64933340665671   -1.32877582653323
O          -0.24025331241126   -0.26928440980987   -1.90377999998471
O          -2.38741241040924   -0.28502761527745   -0.75037343360033
O          -0.66489497237047    1.32994641605972   -0.17443076682630
O          -1.83082526506295    1.53348549360669   -2.28884736050676
O           0.51943391325472   -1.12532541761664    2.07932972859991
H           0.65138545508665   -1.55666830611699    2.92455046210584
O          -1.67706861304909    0.32503079695891    2.02157374562335
H          -0.31365350168158   -0.58884054947359    2.16636253160332
H          -1.37592584851091    0.83762939758193    1.23530979391013
H          -2.49672101341211   -0.09343959703108    1.74776301954411
O           1.70700602068833    1.07003947542591    0.94398429144740
H           1.51865547078529    0.24299194410655    1.42442159676131
H           2.08336185894148    0.84189903013903   -0.51360267137703
H           0.81494713402420    1.39355172355833    0.69022078957918
O          -0.70924710351740   -2.20118397045867   -0.16097377101016
H          -0.29863544155539   -1.75170026140204   -0.91970666908451
H          -0.19047427356859   -1.95172151250227    0.62341430850979
H          -1.90530943574155   -1.10010904428095   -0.46457998236586
N           2.06825875391256    0.71136265187898   -1.59097829518822
H           1.06232821152946    0.28198502752789   -1.79448739699195
H           2.80198447799396    0.09110961357316   -1.91740676696967
H           2.13232843779379    1.61493569689539   -2.04898733724591
