    23
        -45.36777556  Gyration_radius:  2.48088952249 Dipole_moment: 4.062
 S          -0.74059857013533   -0.87861790053405   -0.61236000972083
O          -2.07156783123679   -1.20594274013495   -1.36222000452836
O          -0.30868895947205   -2.10268568930627    0.08009033419897
O           0.21815949755869   -0.41670604527317   -1.57990389879252
O          -1.03965997730255    0.15754503972589    0.39021703844277
O           1.81068802167170    2.97547580782201   -0.40408689620886
H           2.03553710911026    3.40342777834312   -1.23203345180558
O           2.47812129576106    0.40374540881833   -0.45918361693483
H           1.77442241525476    0.08020504032671   -1.06507252279693
H           2.35282611736401    1.38440559423693   -0.43069050774208
H           1.89081207299712   -0.10866665423112    0.77966621150475
O          -0.84473095401427    2.65035960669063   -0.45671669797135
H          -1.45226081891165    3.11816467120525    0.11894123625827
H           0.82985022119076    2.89460962738156   -0.40669262978737
H          -0.95140882539681    1.69726592264800   -0.24417848628111
O          -2.73020246046321   -3.02767182958432    0.45172109789877
H          -2.58377562152334   -1.78144323503784   -0.75539665117634
H          -2.81626916445223   -3.90498244935860    0.07206465235566
H          -1.76810560173339   -2.84377115807462    0.50802466305842
N           1.18797962325209   -0.52189211633050    1.53458430602511
H           0.29756986320689    0.01576104174413    1.40583181863398
H           1.53701257375281   -0.53284048989764    2.48678095566868
H           0.89428997351970   -1.45574526117521    1.18061303970224
