    23
        -45.36777554  Gyration_radius:  2.48095673802 Dipole_moment: 4.064
 S           1.18213699601235   -0.46270779897751    0.29229835529835
O           0.69244303901304    0.88059052964211   -0.05974393237661
O           0.25686821523551   -1.15464291063920    1.14892502614978
O           1.47810159313691   -1.20245190895750   -0.94445920240115
O           2.52636926879539   -0.28516509842575    1.06847174648362
O          -3.15557032272336    0.78297824120362    1.31405122104249
H          -3.49000813366425    0.55004597150776    2.18187465737607
O          -2.16346185905961   -1.35185539671095    0.08096917950724
H          -2.64587222055776   -0.60759847449917    0.51864763403837
H          -1.53696285269334   -0.77462355589847   -1.10939179703980
H          -1.33962515180260   -1.45834911220229    0.60716336423229
O           3.91427655798147   -0.27445541762780   -1.19369629276971
H           4.54568359385916   -0.99603669188648   -1.23701460467662
H           3.03085224101908   -0.66976320022713   -1.35449588287960
H           3.20378238395935   -0.09320023776945    0.38582873741644
O          -0.83733271086161    2.04674215168144    1.74845100804715
H          -2.32445545257028    1.28416081261482    1.47733156026502
H          -0.21380045262156    1.56627559916757    1.16086768523438
H          -0.69603452069297    2.97929552540090    1.57611528587103
N          -0.81997922943696   -0.29545483632572   -1.80998857486290
H          -1.20351106820879   -0.04810415631437   -2.71570309699492
H           0.00727726042503   -0.92557666479358   -1.85824298878305
H          -0.41117716454351    0.50989664003647   -1.27825910817619
