    23
        -45.36777552  Gyration_radius:  2.48083280628 Dipole_moment: 4.062
 S           1.18061696388304   -0.54896639096374   -0.01572544456648
O           2.02128383672676    0.65073019755459    0.11976704481835
O           2.09899231866240   -1.71553881051825   -0.50223881728468
O           0.56980756573164   -0.94555796070044    1.22457110430679
O           0.17338768603486   -0.31110716838437   -1.06315948223095
O          -3.31799939540141   -0.41137785779340    1.05611501377867
H          -3.65152727182694   -1.07933739471255    1.65757539498611
O          -1.20569240239446    0.82315813184340    2.09367081662359
H          -0.54691448826254    0.09977036417016    1.99503907899586
H          -0.73178323625907    1.64392898907030    0.97840584543070
H          -2.06009908170425    0.42685541074173    1.79175356004661
O           3.69650423310848   -0.02267167478070   -1.77703507910675
H           4.59459572765656   -0.04518005555664   -1.43916588373067
H           2.71014219244390   -1.31686704611926   -1.15749348418866
H           3.16387176030565    0.46711436796431   -1.11445026111453
O          -2.03096262852125   -1.75089318610246   -0.86977330970840
H          -1.15726522066282   -1.30285918664104   -0.89930856718637
H          -2.88130943016226   -0.90734460514183    0.32677951277945
H          -2.33206265516164   -1.80106511683648   -1.77868263579060
N          -0.22345049730185    1.99653618769728    0.05538157982559
H          -0.50443914762084    2.91657908001717   -0.26587060228939
H          -0.36416207670491    1.23103205713397   -0.64650996409473
H           0.79846524743042    1.90306167805719    0.23035458969782
