    23
        -45.36777556  Gyration_radius:  2.48085672221 Dipole_moment: 4.062
 S          -0.55936736687004   -0.56159122285978   -1.03298558937623
O           0.17072555562550    0.70478976871288   -0.85557824127339
O          -1.45366387740145   -0.41490966476127   -2.30562265997854
O           0.40864241138815   -1.63862768993060   -1.29251143143841
O          -1.41608587370986   -0.83926914568231    0.08845227698307
O          -0.62445961735164    1.62004701583344    3.04641907735676
H          -1.46569965685409    1.68248014903200    3.50207095428946
O           0.52243926474440   -1.23263590575916   -3.87700594751576
H           0.30052675649791   -2.03597468524865   -4.35305396056243
H          -0.84885381986086   -0.52596407082028   -3.06959901892936
H           0.70819302573750   -1.50160949021905   -2.95193107858813
O          -1.07128019465822    2.54333100672943    0.57504278051827
H          -0.70963814978042    1.82811826183571    0.00704408811328
H          -0.78035891727264    1.99872565439771    2.15149017501881
H          -0.70356657630769    3.36096713770106    0.23507875195853
O          -0.09331921092615   -0.89896483584844    2.38702048671269
H           1.09896882775788   -0.76853255442773    1.54810157235482
H          -0.26639899740021    0.00434340405164    2.75074902829542
H          -0.74144590309989   -1.00094507611203    1.65456875548613
N           1.78475403415938   -0.61775519018890    0.68695669824740
H           1.40933421275885    0.21829654449801    0.17850856189930
H           1.56210493655080   -1.36825164588615    0.00078349980481
H           2.76844913626807   -0.55606777504888    0.92600120062322
