    23
        -45.36777557  Gyration_radius:  2.48077426195 Dipole_moment: 4.063
 S          -0.79493026170437   -0.97071249294062    0.34826623274365
O          -0.05916824911559    0.04564635485573    1.11892537759779
O          -0.01395981935794   -1.46681951577872   -0.75293211330575
O          -1.09521695557405   -2.16452823975494    1.31030324751276
O          -2.08596982015697   -0.40674956004588   -0.07557280526928
O           3.17962363285365    0.76017941645662   -1.26675803248839
H           3.80916838237958    0.14421757530478   -1.64555925673084
O          -3.34879011220234   -1.02931086190634    2.13224537636057
H          -3.07115414448411   -0.62607747507014    1.28197586520294
H          -4.11947526588127   -1.56724271963906    1.93764577663787
H          -1.85062831230304   -1.87523386444703    1.86480903891678
O           0.78592277031380    0.46708448563230   -2.38295447026161
H           0.52995948017241   -0.38528231509808   -1.96477838005019
H          -0.06241672758847    1.32819729306933   -1.55780650778431
H           1.71218140403041    0.62858864362132   -2.07598410036414
O           2.56676566519999   -0.22503492161968    1.14436796259890
H           1.58461455640118   -0.23533068171064    1.13160335568454
H           2.98728186183382    0.41903052014075   -0.36386302614490
H           2.81508485624834    0.19185720386818    1.97132148614611
N          -0.71745446504748    1.72058896144642   -0.75051408226413
H          -0.27269066215220    1.40367415879533    0.14401519101992
H          -1.57270877537216    1.12713114473247   -0.75356531436372
H          -0.90603903849515    2.71612688008304   -0.79519083139497
