    23
        -45.36777557  Gyration_radius:  2.48084044658 Dipole_moment: 4.062
 S           0.66795723863884    0.82346396552652   -0.75575488198712
O           2.03560630557100    0.33807123644845   -0.51422701871103
O           0.77852463352354    2.23843937102735   -1.40885627524007
O          -0.07654047781881   -0.02548729513426   -1.64665304059360
O          -0.01758044181304    0.98420271555719    0.53746916065957
O          -2.98931123995995   -1.80916317488797    0.29197380643008
H          -3.64776532047746   -1.94484893609990   -0.39156436361572
O           3.06806350586176    2.71768220887015   -0.15532486372225
H           3.79385266860858    2.86423329877221   -0.76604240011803
H           1.51677928198070    2.68794606795521   -0.94548708645932
H           2.89385197789164    1.75215169360473   -0.15932253895838
O          -0.56178581065120   -2.41554745380782   -0.60324867301864
H          -1.48731916365886   -2.31350519567040   -0.26974990756512
H          -0.42214894153088   -1.64027949013572   -1.19181287357057
H           0.30569155164224   -1.96589467150486    0.48644299990356
O          -2.65232934499496    0.84027988935858    0.45464145876043
H          -1.67761151477665    0.94014477652215    0.38467063495624
H          -2.89721809027868   -0.83322701530941    0.37968543598591
H          -2.91752776000775    1.36761768163901    1.21022741661121
N           0.93624094665186   -1.34727444100882    1.16055548433608
H           1.72673810186886   -0.99635521353654    0.58123245297106
H           1.22487805060194   -1.80399988760520    2.01887133661814
H           0.39895382312584   -0.45865013058186    1.30227374632654
