    23
        -45.36777562  Gyration_radius:  2.48101321728 Dipole_moment: 4.063
 S           0.92340783477121    0.44557138513573   -0.80320078627082
O           0.08972700069255    1.19244922219803   -1.75799856330920
O           1.10466190731742    1.14094744923838    0.44271389462288
O           0.33593175680889   -0.88884247885160   -0.59750668215345
O           2.32725811291544    0.24578504894586   -1.45912074958883
O          -0.74225876092069   -0.75606147008237    3.34329144779761
H          -0.21895877534566   -0.52604655903518    4.11301403760901
O          -1.15509390340296    1.37631544006272    1.81209748104080
H          -0.25026906817322    1.46847353994497    1.43824397051721
H          -1.77918985700786    0.80143103169809    0.61947742177668
H          -1.08316331576816    0.63447496937731    2.46224868661376
O           0.92366831210326   -2.05182469944442    1.69842397228286
H           0.85070534065901   -2.98452901481066    1.48852841365276
H           0.80655323663396   -1.57393094364643    0.84824485755817
H          -0.13959354482134   -1.26889500128427    2.75816483639734
O           1.26952189376360    0.24053217196695   -3.89324473921944
H           2.15359369046450    0.05272758667952   -2.40479502919993
H           0.63671848061360    0.64676729789448   -3.26305040342978
H           1.60552603629707    0.95563790416939   -4.43817975567774
N          -1.94893578053619    0.31951580861914   -0.36720354799227
H          -1.29036525500182   -0.49534986952036   -0.39332746149538
H          -1.50510158941690    0.93991123531682   -1.07573782265220
H          -2.91434376264575    0.08493993542432   -0.57108344888296
