    23
        -45.36777565  Gyration_radius:  2.48106351322 Dipole_moment: 4.063
 S          -0.02980233793160    1.08291226323322    0.72282535132715
O          -0.33265591820608   -0.32678178940623    1.02130080044244
O           1.41321457642702    1.30910629746786    0.89904739878674
O          -0.49832026914787    1.45884512846223   -0.58402407011399
O          -0.77653706667642    1.95869013277706    1.77942385574722
O          -1.58528656449030   -1.72460077211129   -2.61049391068409
H          -2.25975152811190   -1.38017666372364   -3.19845292290662
O          -2.50009424838861   -1.29625422674249   -0.13268849414152
H          -2.76581199562754   -1.99471013033684    0.46802992512547
H          -1.74751916853730   -0.83834381256546    0.30187766347574
H          -1.94176493668488   -1.60460830701983   -1.70104415949091
O           1.26321672541199    1.78889129766555    3.46900408335705
H          -0.24105988132146    1.90058881039243    2.59894011524894
H           1.56815064984321    1.56046148684421    2.56488157960045
H           1.64026115671642    2.64767454074038    3.67288674974154
O           0.49909532266967   -0.07984735717088   -2.50104307203625
H           0.09325961766699    0.63918294620168   -1.96694784924735
H           1.31058108038625   -0.65756632068859   -1.42857778636974
H          -0.23692318344751   -0.72178793944245   -2.65725199666551
N           1.73169721391422   -0.92062143116548   -0.43459242472567
H           2.07437001854177   -0.03035008892399   -0.01750397069483
H           2.42072594883609   -1.66475124575804   -0.44245382867022
H           0.90095476816308   -1.10595280873213    0.17685696289292
