    23
        -45.36777552  Gyration_radius:  2.48085856167 Dipole_moment: 4.062
 S          -0.15644209313605   -1.28202142353302    0.16552423702750
O          -1.09600226789864   -2.46851092634139    0.55337419105445
O          -0.29901549163446   -1.03863842982548   -1.24485278153846
O          -0.56734086559968   -0.11274110557586    0.96061845803726
O           1.21423029641541   -1.65924605086493    0.54414698818635
O          -1.00325249451449    2.76935971454293   -1.90213366094114
H          -1.51252293684017    2.75502813292862   -2.71430229768445
O           0.49322538296944   -3.16565918526435    2.56112191532977
H          -0.76579742906445   -2.79778026011277    1.41613639211790
H           0.84183820502034   -4.05393369785167    2.45783696763879
H           0.99011173401730   -2.59880309052771    1.93309388267169
O           1.05548057920343    1.09539958483799   -2.04970011671205
H           1.58060219543233    1.10884617171548   -0.68358136224121
H           0.56333262956641    0.24711096667911   -1.97771627517178
H           0.35308325270911    1.79126621115605   -2.07453220093025
O          -2.44774032944866    1.39306372362184   -0.11917100788607
H          -1.55486758103843    2.29911905742315   -1.23640793068774
H          -1.79810281198921    0.74631945621505    0.23389914499033
H          -2.86919739884686    1.78768080030823    0.64629574031563
N           1.75430521279858    0.89819672909429    0.39349546780691
H           0.79985031993021    0.86332815632288    0.82507860937565
H           2.40071531020349    1.52803147120104    0.85616528703843
H           2.02350656174562   -0.10541600614889    0.45561035220222
