    23
        -45.36514200  Gyration_radius:  2.28493276437 Dipole_moment: 7.088
 S          -0.97739392700575    1.20204651045579   -1.18205499225996
O          -0.20485752831755    1.48271384481902    0.03683864045275
O          -0.28442558407191    0.09892610916564   -1.91435967788495
O          -2.34210462692320    0.59510713274100   -0.70564522099758
O          -1.21624576440477    2.34733357045755   -1.98830131727247
O           0.10300167965156   -1.51987431352653    1.88028709961176
H           0.07827939696579   -2.08813456610599    2.65124508760765
O          -1.51734929217157    0.54351028912073    2.09910918250786
H          -2.42311260562589    0.45003425915403    1.79459781501404
H          -0.51776163157946   -0.76582662174013    2.06881611843673
H          -1.05706294327672    1.04262849852723    1.38450644155795
O           1.94381328587583    0.32665090935006    1.03228506343073
H           1.20488532314045    0.94921387158940    0.85551433083333
H           1.49477808335579   -0.45865066810574    1.39569416959543
H           2.25010831803156    0.20487690301249   -0.45396992711103
O          -1.36801487601661   -1.81740572125809   -0.45042789959611
H          -2.14796880244770   -0.36315219643906   -0.55515162005987
H          -0.82447386942858   -1.41577575212650   -1.15009114575706
H          -0.80932450057346   -1.86082397700156    0.34496468713620
N           2.21090167194973    0.24354472928108   -1.53803972688543
H           1.12406545770901    0.18834721729402   -1.76874507344111
H           2.71507279086542   -0.52231637440082   -1.97267726984737
H           2.56518995429807    1.13702631573708   -1.86439477507100
