    23
        -45.36777555  Gyration_radius:  2.48076415678 Dipole_moment: 4.061
 S           1.03747828199090   -0.65425308165303   -0.43601954438451
O           0.15007953448849   -0.51317853246352   -1.55910329485124
O           2.05335360155728    0.40811650530094   -0.37403076383851
O           0.29845074504524   -0.68385605849862    0.83726435531808
O           1.78858782850819   -2.01697814605634   -0.57594795937619
O          -3.47004371719045    0.38036777256479   -0.32920615129819
H          -4.02463646222099    0.01058858109177   -1.01835103766375
O          -2.13824193515384   -1.69235198473846    0.71509731055659
H          -1.20428600873249   -1.38991165502399    0.68117126601516
H          -2.27581126298808   -2.02341123041058    1.60435699453345
H          -3.01255462999087   -0.38794408409729    0.08183744972857
O          -1.38159922565958    1.64509390250054   -1.37847864562178
H          -0.56832959450087    1.95755605027142   -0.20244051418460
H          -0.86589447041618    0.86130727314154   -1.67284509886158
H          -2.22788093102668    1.27118613900589   -1.02888230757783
O           3.88161028218551   -1.08330078185328    0.76177797225017
H           3.34208019205961   -0.33227578953893    0.43384056444128
H           2.57182374803148   -1.95003153873269    0.01048356543163
H           4.68348677130002   -1.09104718968010    0.23438180113559
N           0.15481708401798    1.89939720083768    0.63919447034470
H           0.11650835756351    2.67323547846521    1.29371334011361
H           1.09204877017670    1.75401875818829    0.21005522086591
H          -0.00104694904516    0.95767238137851    1.07213098692135
