    23
        -45.36777555  Gyration_radius:  2.48084387828 Dipole_moment: 4.062
 S          -0.76609757166837   -0.93632334833295   -0.48208435783687
O           0.37654081339546   -0.86426796772627   -1.35263832016704
O          -0.61852449518099   -1.95307769340785    0.57095197420878
O          -1.05054659593919    0.36472376759434    0.14613525645419
O          -2.01087639273950   -1.32577139077019   -1.34209269111327
O           2.26264956545773    2.54252330975149   -0.84383522815042
H           2.66124773934929    2.69432414821180   -1.70250607667657
O           2.55021601168579    0.00585900535567   -0.10557701853069
H           1.72534548907705   -0.07475656534379    1.10087726877904
H           1.89994836784032   -0.40249951464687   -0.71983647531493
H           2.56610175890892    0.96223230563166   -0.35717010455217
O          -0.37788383992304    2.48637319140237   -1.27359558992420
H          -0.65083444670026    1.64719589473881   -0.84212685471660
H          -0.98607224526574    3.15597687857118   -0.95569653035291
H           1.29067747433038    2.56402341127753   -0.99669185040944
O          -3.17668069686408   -2.48603380660356    0.74054556741397
H          -2.21570356429006   -2.39198571592190    0.91464563955866
H          -2.68195166763228   -1.65190972851989   -0.70563837531394
H          -3.33507573633504   -3.42137920136068    0.59486487355277
N           0.87022891952578   -0.18571840116527    1.80163241651646
H           0.49732173656856   -1.14697651999566    1.65818784175942
H           0.09448953106653    0.38059541661332    1.38205215613742
H           1.07547984533174    0.03687251464993    2.76959645867689
