    23
        -45.36777557  Gyration_radius:  2.48087723717 Dipole_moment: 4.062
 S           0.70209691334817    0.65555160168131    0.87901658322681
O           0.75170878160110   -0.72636104304044    1.27470557544265
O          -0.54391562898993    0.96782031823584    0.15918281532612
O           0.73231141849632    1.53425345906895    2.17048383387841
O           1.84753801656506    1.05228372032072    0.04536868706767
O          -2.13176429296395   -2.74429703597813   -0.46862951858398
H          -2.30541576979235   -3.45039493567322    0.15624696608614
O           1.88487694005406    3.53831205433917    0.86731802675540
H           0.99530048475970    2.43168990785375    1.87512465132937
H           2.74633183634534    3.75959391305627    1.22807944812042
H           2.00295076177155    2.70747313592329    0.35900371225494
O          -2.64688980914587   -0.47212343020125    0.84728190346617
H          -2.36174471361654   -1.91182155286010    0.00327047893762
H          -1.83203303166185    0.05554865776707    0.69724013029171
H          -3.37977068736694    0.11074605465384    0.64123067070090
O           0.48235900135244   -2.38175561500792   -0.78048740334505
H          -0.47557991973959   -2.62263208976813   -0.73014539151508
H           0.54486776333875   -1.16605295518471   -1.59319000511352
H           0.67769202147945   -1.95521259054903    0.08373478208441
N           0.56949600769318   -0.10572843476014   -1.92439937097901
H           1.41404578188433    0.31775218509533   -1.48732354674328
H          -0.18493722278763    0.37214087542000   -1.37580811012505
H           0.51047532737581    0.03321379960934   -2.92730491856447
