    23
        -45.36777554  Gyration_radius:  2.48080055283 Dipole_moment: 4.062
 S          -0.74146210723513    0.93963912501927    0.51309020390898
O           0.30253289131984    1.89076926576100    0.92526462021552
O          -2.10470231202231    1.70277502869437    0.52296525999844
O          -0.48101295571721    0.51479514395933   -0.87250212524351
O          -0.85129207488341   -0.18754919050183    1.39968321704757
O           0.31706265314993   -3.46651122686648   -0.41917827150532
H          -0.19405345606081   -4.14769595329761    0.02123537049045
O           1.30070675277459   -1.73760624291382    1.34299044661460
H           1.01969839590354   -2.46220092788666    0.73125185883766
H           1.86480720974063   -0.69192609635805    0.48832047216001
H           0.46799710356080   -1.26668608345159    1.57050493385935
O          -1.47686324544435   -1.83449872908541   -1.54962160811836
H          -1.19527952823374   -0.94864141768999   -1.23204960549048
H          -1.59936514357893   -1.74812629967258   -2.49664890324651
H          -0.34248526052254   -2.89115116513379   -0.86924942717845
O          -0.90523254732709    3.99978003952186   -0.04973514899082
H          -0.24417899838115    3.36427337699749    0.29923841295075
H          -1.91189860283619    2.59550142690895    0.16568854769332
H          -1.03494728791902    4.65891027034262    0.63578455459485
N           1.99290083214441    0.20698806976602   -0.15223805727516
H           1.17327812380680    0.19941619456460   -0.80532273286107
H           2.89402512441516    0.28324520261756   -0.61137392347945
H           1.74976442334545    1.02650018870361    0.44190192501790
