    23
        -45.36514180  Gyration_radius:  2.28484898141 Dipole_moment: 7.096
 S          -0.28311582998197    1.42211363945033   -1.30321449358354
O           0.31159956883207    0.18942396161171   -1.90347677166822
O          -1.82998554049235    1.16806664311697   -1.27352447845152
O           0.14924884774091    1.48844419820230    0.10022335370470
O          -0.00397276878285    2.59959753873883   -2.04774652039647
O          -0.80413800289256   -1.51743466517858    1.70251322064548
H          -1.18258256367070   -2.06965979919121    2.38784508046186
O          -1.88415008458426    0.88220624000557    1.63454096556977
H          -1.25700325362647   -0.63449320201377    1.77324463579069
H          -1.13330247181682    1.25913544971248    1.11885537906610
H          -2.65888712329768    1.02126216786925    1.08471803494478
O           1.58316022256584   -0.17720965092630    1.55444677987248
H           2.26640503502802   -0.35853416352789    0.20601924693603
H           1.09586156817136    0.61196134104090    1.23112603432302
H           0.87626166388926   -0.82955588222715    1.71315011112187
O          -1.56722347109968   -1.41417452175564   -0.96068605215882
H          -1.91856468354187    0.18987475826246   -1.15605497116330
H          -0.76657561247386   -1.15213922886069   -1.44710288080867
H          -1.28808758908046   -1.60413941482315   -0.04815955007657
N           2.55109599097985   -0.30254497447476   -0.83985124194089
H           2.96003390056446   -1.16751734629682   -1.17772034149551
H           3.18758394643402    0.47506533485097   -0.98320234804993
H           1.59633823113590   -0.07974842358492   -1.36594321264385
