    23
        -45.36777555  Gyration_radius:  2.48080881608 Dipole_moment: 4.063
 S           0.71884138568444    0.97379855582234   -0.48106628512625
O          -0.54813746146030    0.35849417023856   -0.91046605135659
O           1.83878047352579    0.20678224126255   -1.04846553070874
O           0.77473311263215    2.41083277012938   -1.09152221303352
O           0.79097746173459    1.09097375056403    0.95061435151843
O          -2.11778249895470   -0.94544948934430    2.62953083365628
H          -2.26915504465497   -0.46634598697536    3.44608303678865
O           0.48407479355217   -1.24113221961128    2.17714088455653
H           0.51425765862326   -1.80209718591270    0.82569437627594
H           0.69777567401295   -0.31512474683262    1.92471080710238
H          -0.47006229773453   -1.21641006766648    2.43649584158192
O          -2.62022991692987    0.79977448143709    0.66453712936032
H          -3.36323513183371    0.72837659601258    0.06273124809707
H          -2.34335782842527   -0.31514007424900    1.90813604706405
H          -1.81414408511409    0.73728398192303    0.10668672177318
O           1.87366214656286    1.49599259130122   -3.32731493639060
H           1.98642849726922    0.83305708893774   -2.61287678625934
H           1.02141990305684    2.29003103036042   -2.03296005770503
H           2.74204507215260    1.87230913246776   -3.48688048897737
N           0.52046618271074   -1.92036947729393   -0.27918218349401
H           1.37217449888446   -1.42910605342870   -0.62107280738053
H          -0.22376887210545   -1.27136875372127   -0.63034564244095
H           0.43423629681281   -2.87516233541890   -0.61020830490170
