    23
        -45.36777559  Gyration_radius:  2.48076043218 Dipole_moment: 4.064
 S           0.93997553746749   -0.86116217569213   -0.26541979846640
O           1.41298497885030   -0.08011067523009    0.84584921368883
O           0.27229700237174   -2.10360759906564    0.15287958751672
O           0.02112097927694   -0.08829630837483   -1.11777055494649
O           2.17119263302717   -1.25937351354537   -1.14089924804323
O          -0.63975417712086    3.25418331967590    1.13725637739776
H          -0.01006338773335    3.85531014626417    1.53898510906753
O          -0.56633195989266    0.87990729938957    2.32807959755382
H          -0.65072165808486    1.80515492809528    1.98874440905246
H          -1.42440181568687    0.06170032518202    1.47034372886346
H           0.29321066131648    0.56152490816122    1.97207507206363
O           0.45214452952869    2.51506627498908   -1.19102204541832
H           0.10259549606944    2.76401084792909   -2.04842626253661
H          -0.25626181344628    3.01607729515742    0.26269746545372
H           0.40180436104589    1.53475573235754   -1.15336624387625
O           0.95314802646544   -3.46337116040672   -1.97886302517463
H           0.51528405421674   -3.13826021786361   -1.16326259038224
H           1.87133802435806   -2.01144407274461   -1.69426009293689
H           1.42942781630831   -4.25909270926659   -1.73151178460801
N          -1.80504050721179   -0.59149665393476    0.65586554404557
H          -1.26697411040366   -1.48038853366527    0.71830548336412
H          -1.40584040503516   -0.19240577053822   -0.22719310209759
H          -2.81113426568823   -0.71868167687474    0.64091316041954
