    23
        -45.36777554  Gyration_radius:  2.48086900195 Dipole_moment: 4.062
 S           0.61552096902318    1.09083656262938   -0.35560811461826
O          -0.59432840353412    1.04076307863309   -1.13180895934581
O           1.09120803966276   -0.25850671914533   -0.00745058082234
O           1.72328773331312    1.77130888866687   -1.22207149181668
O           0.47024512081199    1.87912060900284    0.87803402932538
O          -2.06328908629907   -2.60187254944147   -1.12574873809966
H          -2.52804529352952   -2.64578879974091   -1.96315961190307
O          -2.53429309112118   -0.28883905120688    0.09502346101882
H          -1.99267617787877    0.29634495140912   -0.48047523084933
H          -2.47702443153848   -1.18032395588177   -0.32945535373591
H          -1.60719754328054   -0.32682682257232    1.22693268432244
O           2.96481922073411    2.67306739945554    0.94316417435267
H           2.41698224390088    2.05652879980213   -0.59021665831657
H           3.01146433260641    3.63152366477256    0.96336126884405
H           2.04051999126786    2.43623123295737    1.17163262153709
O           0.50131432276718   -2.15622076651624   -1.74528608896888
H          -1.11440306632960   -2.47985650790355   -1.35665999387205
H           0.72860199110450   -1.38151557161452   -1.18571381474721
H           1.20318965222026   -2.79493174776902   -1.60843921731213
N          -0.70299850370598   -0.24213768851772    1.86717001841661
H          -0.78839777982204   -0.65597967007107    2.78915355679214
H          -0.44563648204209    0.76645300130770    1.87806912096244
H           0.08113625167139   -0.62937833825380    1.28955293883561
