    23
        -45.36777555  Gyration_radius:  2.48082763654 Dipole_moment: 4.063
 S          -1.00915146900697   -0.81636735012599    0.10697909277522
O          -1.52996643549356   -2.25318185028954    0.43134534599038
O          -1.91705916951488   -0.23012393119995   -0.89126316674489
O          -0.96827044377792   -0.06593728106171    1.33329707222702
O           0.33071860194509   -0.95407121378266   -0.48799661348403
O           2.55006059199309    1.62225798222969    1.77735110129666
H           2.64012734642866    1.67847921535785    2.73021237989002
O           2.33985265140763   -0.98723544122326    1.22421872475822
H           1.53285571223040   -1.02676273817586    0.66557957546925
H           3.00879160951947   -1.49045934890984    0.75666757847890
H           2.51507266463027    0.66042326751410    1.57184029501559
O          -2.54280908666150   -2.51472128147813   -2.00764964160360
H          -2.39140391693626   -1.56424166365097   -1.81709295951360
H          -1.82499353062506   -2.62839911863271   -0.42536805335600
H          -3.49363070029018   -2.64505337825146   -1.99480089718300
O           0.10659316083665    2.33855736069696    1.01684781918662
H          -0.38436259951230    1.54441326694430    1.32545379650038
H           1.03563095184154    2.19368504509261    1.32361935057691
H           0.10158046042526    2.00428026491214   -0.40808691576117
N           0.01881454179767    1.46426443627638   -1.37570223949041
H           0.51031733541586    0.55100636624402   -1.22483680980137
H           0.33798439485098    1.98312610401648   -2.18660808085179
H          -0.96675268150692    1.13606129749718   -1.44400674437394
