    23
        -45.36777555  Gyration_radius:  2.48083035723 Dipole_moment: 4.063
 S          -0.66586826235805    1.10735709163303    0.16330074696070
O          -0.77093066486644    0.77803626934393   -1.23283074568635
O          -1.80052102497246    0.60709872114199    0.95498662166373
O           0.58606602611681    0.59710520239355    0.74683710289188
O          -0.64752585222971    2.66381907659435    0.29741709855521
O           2.00776886843642   -1.81181456467116   -2.23154045339250
H           2.15652916185175   -1.61715808984016   -3.15846911417750
O           2.63225298888690    0.43118045111023   -0.91297940742011
H           1.83922976634848    0.58240468103914   -0.35340023341020
H           3.38730293052437    0.51515877881761   -0.32803130620775
H           2.27769662500785   -1.00015992261276   -1.74477506851508
O          -1.72346030455779    2.53979800137401    2.72021163526739
H          -1.88162037478664    1.69390231897344    2.24894528336535
H          -0.87396699472462    2.85244661996566    1.23279478997219
H          -2.57148519790128    2.98706717875936    2.76513056462601
O          -0.59107572849892   -1.83109103329676   -1.67689046354482
H          -0.76033851618285   -0.86349849028794   -1.72221959038032
H           0.35607110046267   -1.93252009942234   -1.94303365433538
H          -0.60837838082813   -1.94332506191680   -0.21767172391532
N          -0.59026796024841   -1.71263752743226    0.86915874112428
H          -1.41200180615454   -1.10016627290477    1.05179652702676
H           0.18874139612633   -1.02234250770132    0.99168638039799
H          -0.53421778545103   -2.52066080105902    1.47957627913561
