    23
        -45.36777551  Gyration_radius:  2.48069026558 Dipole_moment: 4.062
 S           0.42630379578130    1.04585448963532    0.64711410560924
O          -0.36864308861495    0.92551804049817    1.87918125109032
O           1.00126245057879    2.49762837414527    0.59704280880465
O           1.52952007143690    0.12410498377996    0.60234209086193
O          -0.46388913025956    0.88116908203671   -0.51421948652173
O           0.93718866585711   -2.56688671176661   -2.19562840019530
H           1.82906513973712   -2.80439837698930   -2.45521400770380
O           0.73686548592233   -2.40266029773981    0.44923531932353
H          -0.60547539692707   -1.85067512955893    0.63728075262172
H           0.81795689279683   -2.58809780819916   -0.51887524572783
H           1.22914946447319   -1.56211495257400    0.58387530972715
O           0.70053497048940    0.04417252024155   -2.73060376495695
H           0.83789338002073   -1.61658454410646   -2.43159447269741
H           0.13264182039492    0.40000367403179   -3.41630245394615
H           0.36212595918892    0.40897037019203   -1.88364838070489
O          -1.07783608037723    3.44528888494418    1.94636118725534
H           0.28254119329571    3.07949344931915    0.92379467037313
H          -1.02043787795806    2.47431649612315    2.07505762027978
H          -0.81956708802289    3.84454296551216    2.78008885916051
N          -1.46860672318815   -1.15798968107445    0.73699474742625
H          -1.26229547843291   -0.54926018066953    1.55580874315386
H          -2.37774810103937   -1.60593496733228    0.77488667968079
H          -1.35855032515577   -0.46646068044582   -0.04297792291581
