    23
        -45.36777557  Gyration_radius:  2.48085578041 Dipole_moment: 4.063
 S          -1.01930501920465    0.50866820237847   -0.63109252908019
O          -0.25877229037655   -0.21515818480149   -1.61412462578714
O          -2.10584551857074   -0.29250942759500   -0.04628686697495
O          -0.16054439096260    1.01335716226330    0.45335316764020
O          -1.66948523552346    1.74509354589066   -1.33065440017259
O           3.38037942942865   -0.88332400119242   -0.29768956318565
H           3.89420963530414   -0.92270065504064   -1.10618367296331
O           2.32647995313815    1.57532260270316   -0.23092269984902
H           2.57532019428339    2.24699351678449    0.40645062168957
H           3.02793526336192    0.03449708832620   -0.25347762911019
H           1.37222995148929    1.39901622788873   -0.07853990989322
O          -3.69058223584272    1.74612208113994    0.38933985365878
H          -3.24705452230585    0.87112034918519    0.40702821888515
H          -2.39500572281805    2.03466898206204   -0.73774896217201
H          -4.53682136605077    1.61182414852249   -0.04316545795410
O           1.10529577416034   -2.23138188542622   -0.55989940177960
H           0.62807981188793   -1.60487268786147   -1.14869724583116
H           2.00874880249893   -1.84171871098821   -0.45911391522167
H           0.38749931617763   -1.89576574526836    0.67074510922458
N          -0.24362972003284   -1.38861204843718    1.43173089253431
H          -1.20333439196660   -1.34123551548107    1.03121551722824
H           0.02834522404485   -0.37749689659949    1.38628382794712
H          -0.20414297212066   -1.79190815845423    2.36144969116732
