    23
        -45.36514198  Gyration_radius:  2.28509884642 Dipole_moment: 7.091
 S          -0.01991004284977    1.86302258658554   -0.57270233039352
O          -0.13963214041761    2.96339198713563   -1.46359587942478
O          -0.30605212657654    2.33508280564693    0.89464773669218
O          -0.96589738759355    0.77117194138529   -0.84475381739667
O           1.35400136618866    1.27592679737107   -0.54180631738787
O          -0.50873819222694   -1.74307998521532    1.60040334180525
H          -0.76433483875210   -2.38538936179222    2.26371221716710
O          -2.26048881076163    0.20764721906373    1.36057289047963
H          -1.23855471505748   -1.06797686033395    1.56911432831323
H          -2.15978106055404    0.98640839101526    1.91314596781254
H          -1.91518421203364    0.47417614999184    0.47663421708384
O           1.15406232973483    0.44606425399313    1.96030192249289
H           0.19529231750104    1.69808889797436    1.46144325198584
H           0.68603032393567   -0.40459758204776    1.89726950550535
H           1.56467632129046    0.60188281056039    1.09226133394929
O          -0.58481592294795   -1.81944263280995   -1.13944807324737
H          -0.97844985367063   -0.91952629894593   -1.13142009062914
H           0.69718445032746   -1.29725707119194   -1.77290889699539
H          -0.48500041976396   -2.03027766688886   -0.19293856000105
N           1.50074129224417   -0.67089092103282   -2.14731477541957
H           2.40247474099003   -1.13507094604897   -2.11431243682012
H           1.48350366827239    0.21623009659319   -1.47639730761415
H           1.28887293272116   -0.36558461100884   -3.09190822795749
