    23
        -45.36777559  Gyration_radius:  2.48090532644 Dipole_moment: 4.063
 S          -0.43861860213096   -1.16083472741701   -0.39536282317652
O          -1.42370335464010   -0.64958660536736    0.51946226785189
O          -1.17539878434241   -2.00535227202523   -1.48387061492605
O           0.27493739878693   -0.07331269501190   -1.08549320415808
O           0.54515294402221   -2.03904083938497    0.25694521235360
O          -0.96830133416009    3.22286074327942    0.98765333705035
H          -1.85756920336705    3.51672115267496    1.19278779180602
O          -0.38025865476625    0.99842542212484    2.31743874938973
H          -0.93856092994660    0.36895067024923    1.80851452854641
H           0.90344205521616    0.60361644100373    1.73535819320799
H          -0.58872951713358    1.88549794019434    1.93292241700697
O          -1.11064047679612    2.14300870769545   -1.45650575159453
H          -0.69107135990429    1.26370063002793   -1.33124332497238
H          -1.01353916198817    2.86429791038223    0.07225876988249
H          -0.69844903998557    2.52317090954722   -2.23425313044667
O           0.96671491137435   -3.52742504311901   -1.85585650539701
H          -0.48546340137927   -2.56710606270160   -1.89637244020437
H           1.03959205965198   -3.06599042885674   -0.99307982025157
H           0.79722792803395   -4.45065359024649   -1.65548444889091
N           1.68677993407993    0.16878411032589    1.07825267053553
H           1.54032863908767   -0.86189613023527    1.09148067704821
H           2.63604071868605    0.45340755225843    1.29392838218721
H           1.38008722160105    0.38875621460192    0.10051905715024
