    23
        -45.36777558  Gyration_radius:  2.48085685063 Dipole_moment: 4.063
 S           0.78368021777880    1.01144112533831    0.24273967240264
O           2.07565545450837    0.43395982699029   -0.15949938510474
O          -0.03030478607558    1.39433720303090   -0.87953041159332
O           0.08426383170947    0.05531040326461    1.11726116117313
O           1.08218929545054    2.29098692154508    1.08804590246963
O          -3.19156982742098   -0.92297711383757   -1.12172681346445
H          -3.84025874740493   -0.35317059906727   -1.53853142187374
O          -2.54531724218371    0.28068333107002    1.17901726732120
H          -1.56404499937021    0.30716353697415    1.14281302223856
H          -2.98619905321107   -0.50055109035829   -0.25687777948101
H          -2.76771233779456   -0.06575672678482    2.04494666100916
O          -0.82782706706965   -0.69005485809644   -2.31352446021517
H          -1.74421080685781   -0.83926999561509   -1.97263491865284
H          -0.57924202525191    0.20031833478314   -1.97829041681951
H           0.05404854230967   -1.45996103393189   -1.43499267794269
O           3.37389797766809    1.27118160035826    1.95494139859337
H           1.85455116559211    2.06487077043726    1.64848049987774
H           3.08559309133116    0.78946311949591    1.15029380755419
H           4.13001488104654    1.80255100333918    1.69582738173763
N           0.73351814505581   -1.76780241627110   -0.61146435114398
H           0.94003644626592   -2.75998046744258   -0.57225325773497
H           0.30216520696852   -1.38033768099979    0.26155655044466
H           1.57707262695470   -1.16240517422042   -0.68659742079541
