    23
        -45.36777563  Gyration_radius:  2.4808145712 Dipole_moment: 4.064
 S          -1.09615533582656   -0.55644548824527    0.43004136969635
O          -0.73339003195071    0.83867692586304    0.12987660745185
O          -2.30491178644538   -0.52598569297676    1.41948536183954
O          -1.55222098503727   -1.20823818887560   -0.80757746207932
O          -0.01366092556414   -1.25912558137837    1.06493914568221
O           3.28466450614818    0.86255305709306    0.87151046289745
H           3.76434427756006    0.57887558976812    1.65167052041381
O          -4.03782752303750   -0.41440112333548   -0.58756063449329
H          -3.09166905320918   -0.32070080445586    0.87123795767070
H          -3.17392796463855   -0.74002405672614   -0.91962452093585
H          -4.63269691066168   -1.16755830254886   -0.59704524319543
O           1.01020562736059    1.94361819789637    1.77538233429262
H           0.32363253950602    1.47594345404757    1.25112938761869
H           2.46809447613065    1.29739562685308    1.20733527917162
H           0.79967974961808    2.87688561698303    1.71212829023029
O           2.20931718171185   -1.21914670623341   -0.38187380465534
H           2.72011360850444   -0.48548409195568    0.04135400731074
H           1.48687960348239   -1.41912589993562    0.25456507206161
H           1.37322209852619   -0.58495278536328   -1.40173887393492
N           0.53111738090566   -0.09399150682450   -1.93535409219372
H          -0.26246187729233   -0.76724381719075   -1.91128381901336
H           0.75199798334308    0.25019929890349   -2.86344796556792
H           0.17565333086572    0.63827628863723   -1.27514938026728
