    23
        -45.36262130  Gyration_radius:  2.44660116188 Dipole_moment: 2.546
 S          -0.03127848717631    0.71544359970804   -0.78624733225980
O           0.56552475967101    0.83174706717470    0.63209805906456
O           1.01297090311178    0.39662619762573   -1.71887988572208
O          -1.12699611456049   -0.21761835320753   -0.73581390338835
O          -0.55775321233831    2.11511075430177   -1.10198015370635
O           2.31502913497145   -2.46842089618622    0.29464628886616
H           2.92540027077482   -3.17004608862847    0.06217699894279
O          -2.60992883221137    2.52786662958465    0.33188259145490
H          -3.35701446255985    2.26208848075292   -0.20930386605714
H          -2.49203279368390    1.80927878328543    1.02454560069339
H          -1.37024480595838    2.34507474140708   -0.51897059000787
O           2.93365145806000    0.11998072591315    0.18693097805254
H           2.78474322098506    0.25859216214619   -0.75851970618310
H           1.57098063992884    0.61166117218332    0.58018183908383
H           2.83047593740866   -0.85086882821670    0.33550901111033
O           0.47031931144487   -2.25073726521148   -1.63237015508201
H          -0.36952045214941   -1.93598401072722   -1.27189058503147
H           0.84309183230878   -1.45524125284345   -2.04008619302109
H           1.59654482861838   -2.49260484483159   -0.37912117858325
N          -2.11049187765803    0.44396993290564    1.85963136080755
H          -1.82918683467628   -0.08136203671405    1.03379892004426
H          -2.72592913477047   -0.13388896048977    2.41818245935112
H          -1.26835530949766    0.61933230005144    2.39359942157793
