    23
        -45.36262164  Gyration_radius:  2.446825602 Dipole_moment: 2.536
 S          -0.85126156797145    0.05570415074899   -0.63366374835843
O          -0.90905575072452    0.83227879292338    0.57771352870415
O          -0.47697838362997    0.77799497923528   -1.81693976412530
O           0.13574083672039   -1.10924813594325   -0.40989824507286
O          -2.19985348623889   -0.61994572663809   -0.87977097821111
O           3.09208169070669    1.17381738365111   -0.78498976446163
H           3.78425027321324    1.73695664069747   -1.13525925085084
O           1.79976913123013   -0.64896558426140   -2.23502942952254
H           0.85900939145733   -1.06712213638986   -1.14301071900732
H           1.15718552139381   -0.06070514628255   -2.65498503583030
H           2.41604602319971   -0.06062339397097   -1.73566607203381
O           0.88631986422596    2.64353552675600   -0.41250452074306
H           0.41709643846852    2.32204428059000   -1.19630753884968
H           0.35686638303164    2.29222144675243    0.31596275072388
H           2.33879767303647    1.76827893800535   -0.56105594967404
O          -3.00311152958414   -1.59968599497811    1.31843250042761
H          -2.14193190923835   -1.60734321906180    1.83643146743353
H          -3.55144531823447   -0.91886462497033    1.71533048578864
H          -2.55225064968072   -1.06492244777166   -0.02486313519527
N          -0.64449224418238   -1.30629814230561    2.44851375157103
H          -0.37930949423463   -1.20762663849248    3.42038982508968
H          -0.54947194352208   -0.40183791806824    1.99023772681635
H           0.01599903057534   -1.92964305022278    2.00093211540591
