    23
        -45.36262149  Gyration_radius:  2.44685034851 Dipole_moment: 2.540
 S           0.77406798127647   -0.05573200814674   -0.72581452440856
O           0.63356411314250    1.20516627704796   -0.04453393623088
O           1.03208346257107    0.18561549127558   -2.21286482803655
O           1.79757456570014   -0.92533493356223   -0.21777828647358
O          -0.58680627549984   -0.78170551980515   -0.67678876041879
O          -0.06819305819359   -1.75307634920031    2.91080422349148
H           0.22406673101292   -2.17770658269709    3.71899382799498
O          -0.57837104909112    1.97551083877206   -3.01307382013879
H          -1.25334530028929    1.95494705622202   -2.26868532599507
H          -0.10310138311388    2.80502863834237   -2.92479085888827
H           0.37875237464294    0.87897754645138   -2.59413692023658
O           0.07086605610831   -2.89674968653886    0.50905474481323
H          -0.44488687322637   -1.70889808771657   -0.24965368622953
H           0.99832327861263   -2.70126159592896    0.31692695805483
H          -0.07817259103236   -2.60244853453801    1.43989352332727
O           1.68445097218311    0.16102978739345    2.25571800235645
H           2.11913534686869   -0.33766708471331    1.54839999804200
H           1.24789915568146    0.87881468524569    1.77752894074428
H           0.53840600860205   -0.99057450079670    2.76420480311835
N          -2.04288986928119    1.80179039629371   -0.83346956838887
H          -1.19213544489823    1.71009233148949   -0.28124335552864
H          -2.50060978930336    0.89885693768419   -0.81416250081886
H          -2.65067844248330    2.47532488743349   -0.38452866014659
