    23
        -45.36262127  Gyration_radius:  2.44650056526 Dipole_moment: 2.541
 S          -0.35959031766347   -0.66539207903665   -0.74844624917200
O           0.28026518185911    0.73151737468416   -0.89331382455870
O           0.64011294722371   -1.67325213120554   -0.96440318893691
O          -1.03362992543764   -0.71918551540292    0.52298516052463
O          -1.38347305932795   -0.74262720265052   -1.88044522608421
O           3.06792089938963   -0.17597298338368    1.44733300605212
H           3.86670141463416   -0.53707406680339    1.83514578395823
O           2.69488470326572    0.09648023055645   -1.17603048814661
H           2.42044228222044   -0.81007465902173   -1.37118736084727
H           1.28795617482948    0.61052636395114   -1.07085590529705
H           2.96437303370755    0.09658788847459   -0.22589432401304
O          -3.30327042534480    0.81635197552764   -1.31319338313005
H          -3.95253548547608    0.26982699411130   -0.86421658121068
H          -2.87171250053216    1.38358475099733   -0.60468073102238
H          -2.16602780736033   -0.09998641984441   -1.71478895640498
O           1.10102116633204   -1.97614982796735    1.68298784078134
H           2.34787325318683   -0.81748808154975    1.64963143659375
H           0.24085893050832   -1.53972331954522    1.74709422169453
H           1.12523271141449   -2.27344861049854    0.76166762390503
N          -1.94960048929657    1.98145887965837    0.62000786350552
H          -1.57395895611599    1.07403309313026    0.88966620675144
H          -2.26142101858327    2.46435204921613    1.45317751171321
H          -1.18242271342729    2.50565530658971    0.21775955333882
