    23
        -45.36262145  Gyration_radius:  2.44653149814 Dipole_moment: 2.542
 S           0.34203964135968   -0.12747573608429   -0.99935609632224
O          -0.16685239809748    1.17796677970993   -0.66693406397389
O           0.82401259957784   -0.80041312434664    0.30327065147370
O          -0.57782728604426   -0.99922632235930   -1.67460717966397
O           1.60144493093832    0.01024819327510   -1.85413792855753
O          -2.69761899045749   -1.56469320311811    1.34944572212678
H          -3.57146738706894   -1.94931673440836    1.43498885524927
O           3.06504112961167    1.80260846525411   -0.81366038790068
H           2.82338344914984    2.61860287427007   -1.25804349877766
H           2.66311009444678    1.85144097265249    0.10607660504542
H           2.24586709598475    0.70091203769140   -1.45337911870510
O          -0.61534694219907   -2.85975467710888    0.30948016535381
H          -1.38979157517508   -2.50268902264995    0.80762721893364
H          -0.81247153184959   -2.71011723719112   -0.62538432794022
H           0.33768372154434   -1.70354616214948    0.40158620500734
O          -2.73796275660332    0.24168523806058   -0.62486964071843
H          -2.09558593365918    0.94561463031281   -0.46324900587876
H          -2.29018413737335   -0.31467856113322   -1.27907157684499
H          -2.78021950664564   -0.83428834419218    0.69308925632720
N           1.67222368212266    1.81643518798828    1.41948885874791
H           1.54107684853469    2.53743607634219    2.11772447153728
H           1.80274469829876    0.93277695391127    1.89622521140477
H           0.81670054356862    1.73047171531369    0.87368958407270
