    23
        -45.36262112  Gyration_radius:  2.44662745109 Dipole_moment: 2.545
 S           0.74176497523429    0.46167548842716   -0.60765338592856
O          -0.72868822709740    0.86372613383668   -0.36675206206588
O           1.21978840942391   -0.21439346476005    0.57062479593146
O           0.83903642974634   -0.28181097994999   -1.83228723901070
O           1.48316491229639    1.78690663673061   -0.78041446114723
O          -1.90314880955199   -2.65413516757320   -0.93297168415090
H          -2.16355013726197   -3.48874241781804   -1.32587650043039
O           0.74649475353210   -2.66291804008579   -0.55378324984341
H           0.98705610291680   -2.11482446244915    0.20533092538185
H          -0.94679758894910   -2.73905635821103   -0.71141460785439
H           0.95869326073371   -2.09381995821058   -1.30804615092337
O           1.57553709015429    2.93929339597527    1.47819731710900
H           0.86108767370113    2.43085951874318    1.96923277524894
H           2.41236228689188    2.67358734582419    1.86663116149506
H           1.51554013949035    2.31000710790294    0.10174110767727
O          -1.84602854825085   -0.34730384744839   -2.26376359356174
H          -1.30252366625031    0.46532013273635   -1.12424735800963
H          -0.98339991179427   -0.45402219493348   -2.68770446184279
H          -2.02951566433291   -1.20486514245100   -1.80965108334309
N          -0.20240037009471    1.30427397677439    2.52328772681086
H          -1.10059583675224    1.46886890920734    2.08587054797638
H          -0.36336643534470    1.02123038262785    3.48172251399426
H           0.22948915156429    0.53014300508388    2.02192695648729
