    23
        -45.36262095  Gyration_radius:  2.44674662526 Dipole_moment: 2.536
 S          -0.72551778208394    0.68047264722728   -0.37600315384162
O          -0.41074734583203   -0.76664830847227   -0.80974293079971
O          -0.39981056120101    0.80989760911407    1.02073250377698
O          -0.05937595158391    1.59868155895777   -1.25635506950936
O          -2.23444029580184    0.82459735806781   -0.57112460148554
O           3.27374273801743   -0.05030140896758   -0.90929916016784
H           4.14636759321083    0.25404401543656   -1.16423092102947
O           1.26368755975946   -0.33776267353546   -2.63299786923547
H           0.24226721871194   -0.73177407341056   -1.60637515292208
H           0.97537372980780    0.58486342851159   -2.66339693431270
H           2.08763361353672   -0.34369387180102   -2.08841816462904
O           2.03383089832763    1.90899425596241    0.42755805309908
H           1.46416479079885    2.18612159285088   -0.30490155673352
H           1.40487458422944    1.54567154150598    1.06545312190047
H           2.89456419600238    0.65135891537363   -0.33047916123069
O          -3.39704699087488   -0.57054612969572    1.20072222693305
H          -3.57277372233172    0.03251014923175    1.92677895922945
H          -2.75111273553041    0.24739207416108    0.10179169463938
H          -2.63595401196665   -1.15658167184672    1.49658575739276
N          -1.16995273598514   -1.80313301479443    1.86850597165042
H          -0.88817687542461   -2.24420943515695    2.73492355250781
H          -0.66422249872177   -0.92474127025173    1.76927032125793
H          -0.87737541506865   -2.39521330848401    1.10100252350048
