    23
        -45.36514201  Gyration_radius:  2.28509703723 Dipole_moment: 7.090
 S           0.07740096841688    1.18869347617668   -1.54274815038511
O          -0.07843884472708    1.60220883589656   -2.89312412685117
O           0.10192553858826    2.44356725514956   -0.60331101910711
O          -1.01123266531551    0.33049195004225   -1.05350494998349
O           1.36611290572744    0.47576469586949   -1.28918404082217
O          -0.40407439951975   -0.41855632695137    2.34948298575715
H          -0.60715954200168   -0.51930906842508    3.28033904076801
O          -1.95527164592366    1.34936959786937    1.16638803834969
H          -1.05282682030651    0.24533646237460    1.99206693400630
H          -1.67857114138564    2.26871530873181    1.15456083157226
H          -1.74267603668145    1.00615067488736    0.26713814910590
O           1.51779821385565    1.24132840200678    1.23673286551347
H           0.62431696745971    2.15252517683612    0.18458789674553
H           0.95876814297572    0.60610338234490    1.71694741424727
H           1.78539813792752    0.80542087156734    0.40924873130115
O          -0.96221242160515   -1.99813201756210    0.17889933467974
H          -1.25144512425111   -1.19343661936932   -0.30447972624202
H           0.23811512304220   -2.16918543790326   -0.74186520298363
H          -0.72231583761178   -1.65760780107853    1.06027730863191
N           1.02574219894194   -2.02203655762890   -1.47406150196459
H           1.21891042293786   -0.92691522275756   -1.44307415927286
H           0.68622155399035   -2.26404460043747   -2.39951435872794
H           1.86551431546575   -2.54645243763927   -1.25180231433845
