    23
        -45.36262120  Gyration_radius:  2.44680013572 Dipole_moment: 2.542
 S           0.30671770315611   -0.01028450351773   -1.01806455203135
O           1.30543752880368   -0.39374617860139   -0.05417362880409
O          -0.36982607846362   -1.09300577924449   -1.67525266459002
O          -0.72906676380239    0.88481839263640   -0.30545251269458
O           0.93291478589950    0.89148361582365   -2.08136052435603
O          -2.32362679882288   -2.07772366339054    1.35301967601223
H          -2.83220538433918   -2.86859462563024    1.53928283207701
O           0.06523930221590   -2.79338732607847    0.38131036118884
H          -0.13574376072708   -2.58689537868481   -0.54327471902846
H           0.73993033995359   -2.13912089522442    0.60750333225157
H          -1.42051723673033   -2.38219174078330    1.10274827555031
O          -2.82330477274568   -0.44806563716472   -0.69396776134952
H          -2.36349848450705   -0.94694127428542   -1.38309456555525
H          -2.79386002006876   -1.01589483999266    0.11349171773979
H          -1.66258201924654    0.46882824351647   -0.43691356303150
O           2.38667142125893    2.60710768659731   -0.90596041341046
H           3.26942455307843    2.22979924630778   -0.89446472161434
H           1.50412458734113    1.62799237032118   -1.65241688271888
H           2.03305540705755    2.53011881252960    0.03153806974556
N           1.37336430838691    2.02831259890838    1.45305086897103
H           1.37760564581566    1.04133614987366    1.20188534284066
H           0.40349342120278    2.31809743923587    1.47582623170770
H           1.75625231525338    2.12795727682564    2.38473980107938
