    23
        -45.36262146  Gyration_radius:  2.44743036517 Dipole_moment: 2.540
 S          -0.79913788795724   -0.68888458231113    0.12591752327124
O          -1.80851194200081   -1.50315815757261   -0.68293738175706
O          -0.67667258879635   -1.27614487680639    1.43055412651514
O           0.53359957427209   -0.84845429035796   -0.63559950625357
O          -1.16438730228211    0.70372583655683    0.10150283155379
O           2.48932728825202    0.53013546891688    2.25874642607132
H           2.94058062934199    0.63798617481224    3.09759812652219
O          -0.10536797375443    1.09575519481114    2.59492456501893
H          -0.49393457562596    1.44490508534417    1.78172871220680
H          -0.40837397347870    0.17584956515592    2.60257120215810
H           1.56799545272879    0.85095745962845    2.39712724597203
O          -2.25958865597460   -0.26930404759120   -2.85383045725361
H          -1.99779682948577   -1.06242757882143   -1.58991493422670
H          -3.02909589117772    0.27810029197427   -2.68101908961124
H          -1.46936904281710    0.35125379363897   -2.87472741966565
O           1.97025592385831   -1.84431146133664    1.16917295326513
H           2.32246386740894   -1.00964524505593    1.56254106293556
H           1.17138983478037   -2.05513258100811    1.67179488715543
H           1.21258856430233   -1.30529870958850   -0.00925941941790
N          -0.20177459176782    1.33483573521788   -2.50946092289726
H           0.65339308109747    0.79763216261200   -2.58208982095950
H          -0.42680635058972    1.39360255654157   -1.51797943639770
H          -0.02077662031950    2.26802221526395   -2.85736126416015
