    23
        -45.36262077  Gyration_radius:  2.44631245235 Dipole_moment: 2.532
 S           0.18412183462096    0.93631617993172   -0.47051196124471
O           1.17499596602040   -0.16784473572766   -0.04599548598298
O          -1.07770609062656    0.31222227761866   -0.77428061625501
O           0.14479477673057    1.95692512633164    0.53869023378843
O           0.78691777052524    1.53061398277481   -1.74294586451759
O          -0.41636982535684   -0.44643280225961    3.34051842518873
H          -0.68797395849297   -0.29354079242381    4.24706860584770
O          -2.05447076129424    0.90331359624531    1.70992726029039
H          -2.12856390387280    0.45886910202151    0.85458247054124
H          -1.10271255489286   -0.02620945335440    2.77186370461910
H          -1.43945553402316    1.62799369620302    1.52507546323693
O           1.77154539766561    0.62397807848373    2.26248910465441
H           1.40652223388388    1.49261886256665    2.04439977521157
H           1.06569635671312    0.15625513519799    2.77076403575800
H           1.54428145759396    0.06844032458471    0.88671236569092
O           0.56589754196099   -0.18637560989390   -3.59780830740532
H          -0.25220256083021    0.03034611945109   -4.05108295344795
H           0.75446396259944    0.85723991369037   -2.51654508291260
H           0.38014473715822   -1.01312837990264   -3.05727488931468
N          -0.08065377886864   -2.10456882755472   -1.91622790555101
H          -0.64593892762527   -1.44067198880491   -1.38999115600554
H           0.72266076241766   -2.32314383259488   -1.33991213036622
H          -0.61599491205855   -2.95321597268516   -2.04951510196200
