    23
        -45.36262142  Gyration_radius:  2.44652244726 Dipole_moment: 2.546
 S           0.38305398403258    0.80345774896037   -0.58155274398660
O           0.05744243694730    1.63900253506438   -1.81914131515051
O          -0.95702547981299    0.68357548157635    0.17421781775143
O           0.79241234534118   -0.51852106182717   -0.97968925858789
O           1.32370284341533    1.52751959265972    0.22647530096041
O           0.76344696013777   -0.58077918319611    3.25826927512338
H           1.26479996312710   -0.65098749794313    4.07229509944996
O          -1.33716286620893    0.21320514322623   -3.38754545959757
H          -0.70852818032983   -0.19873112019759   -3.98487845803414
H          -1.63972288419364   -0.50636536943575   -2.75446798517290
H          -0.53811386656118    1.11690413481851   -2.47149558490975
O          -0.32106660483727    1.69043788342600    2.38660835069408
H           0.46672519269637    2.06997963469654    1.97361388772988
H          -0.84633976875596    1.11777791425245    1.10223060281486
H          -0.01553865225616    0.87030587764482    2.84422050537411
O           2.45075357710514   -0.73479235484124    1.18631219177427
H           2.44627193829340    0.21189659794656    0.98200073630594
H           1.40036665147539   -0.74964826892826    2.52564462959575
H           2.01561391962448   -1.12449164215870    0.41617568236212
N          -1.78995374559208   -1.59872629880646   -1.53338186777297
H          -2.01033347101258   -2.58396774250893   -1.60642102373352
H          -2.37425791284508   -1.19526876531482   -0.81164279147080
H          -0.82654638977827   -1.50178324901938   -1.21784757149981
