    23
        -45.36262122  Gyration_radius:  2.44621139587 Dipole_moment: 2.532
 S           0.53798566891201    0.91098193182972   -0.11341246467188
O           1.06263830743035   -0.53127037995772    0.04927308328497
O           0.56234402176682    1.57434913798409    1.15983403484533
O           1.54867981976186    1.58961171657909   -1.03732226129654
O          -0.74787015230162    0.84931575184885   -0.75893253872741
O          -1.25179485685455   -1.16641740223127    2.93215646529345
H          -1.66584313540998   -1.18517981602484    3.79649974803180
O          -2.04518386427959    1.03943063204141    1.64037888517642
H          -1.22705192333883    1.53837779222496    1.77951382732927
H          -2.04966810103551    0.89328228813527    0.68479151563944
H          -1.65011826044555   -0.40418592648771    2.45113154230121
O           1.26324134925254    0.62018984198181   -3.36478735483761
H           1.49786946798160    1.20452239286436   -1.98694602224797
H           0.74488060193684   -0.21353962481503   -3.15018769997320
H           0.65357233802381    1.21000198228640   -3.81446408804211
O           1.32989993432309   -0.63665352672915    2.54551026025148
H           1.26717503231875   -0.69174097012917    1.04628275433406
H           1.27917080488335    0.32849416372562    2.57896247764193
H           0.42738910057866   -0.96117165746432    2.78108816144000
N          -0.23431155657046   -1.35982722454724   -2.49041720936515
H           0.33278885921145   -1.97676694325757   -1.92211793817996
H          -0.94006960723987   -1.91648314373587   -2.95587974340174
H          -0.69572381889422   -0.71532102609806   -1.85095542480621
