    23
        -45.36262110  Gyration_radius:  2.44697198734 Dipole_moment: 2.539
 S           0.76736291049396    0.69027278906150    0.25271985206587
O           0.77284429050459   -0.85233173663568    0.29571391270874
O           2.19713412765077    1.07318927121783   -0.12763520584338
O          -0.14126137539318    1.10574274874984   -0.78438549154627
O           0.48888979650776    1.20358321151631    1.56455527346614
O          -2.54008761375997   -0.92440834033414    2.06112052487824
H          -3.23375763627365   -0.87320461964173    2.72075616629158
O          -2.14421891111792    1.51526252338702    1.03387245265332
H          -1.33217773425289    1.70180127791778    1.52758892727460
H          -1.83381142522620    1.45830071968916    0.12019693322933
H          -2.50030835835168   -0.03798454927835    1.63262157000765
O           0.03463449479527   -1.24119993687054    2.66556939324664
H          -0.94157362811712   -1.26976976588972    2.51876992187012
H           0.53141487007809   -1.15114821857912    1.25201438320787
H           0.24284939644121   -0.31885443420738    2.86854455014501
O           2.56659014049152    0.43777045696066   -2.55606614405043
H           1.79602139923107   -0.19215664237600   -2.69619909341473
H           2.36497669455740    1.22880093818274   -3.06132933489894
H           2.40834167737239    0.80202752580377   -1.09446584943971
N           0.36362860467623   -0.99895853138442   -2.64285660909817
H           0.47663132286673   -1.81310962539536   -2.05165848634594
H          -0.23580439453335   -1.25078263536667   -3.41863639268173
H          -0.10831865864646   -0.29284243653095   -2.08081126372746
