    23
        -45.36514196  Gyration_radius:  2.28512590949 Dipole_moment: 7.092
 S          -0.36263356908830    1.46141064031866   -1.23772253904823
O          -0.13193405728604    1.47620039204352    0.21404644324933
O          -1.83154019279140    0.95329025331917   -1.44266274056888
O          -0.20147120561286    2.72905707032324   -1.85890970298232
O           0.51149609597908    0.40123304778353   -1.82533705349820
O          -0.73192395053457   -1.77256658833332    1.47673129082836
H          -1.09033614166925   -2.43790356655676    2.06559609742429
O          -2.20399245747534    0.40923493314789    1.40819257544725
H          -1.47263588074365    0.94904404713781    1.02690031248497
H          -2.91550234684783    0.46359715826159    0.76577819719370
H          -1.33962393257530   -0.98753655058716    1.53909857350098
O           1.38092940418212   -0.04532493761753    1.74335453476497
H           0.80535398607044    0.67544202561367    1.40550354545598
H           0.78697157663990   -0.81807215367883    1.76196178189642
H           2.25119328410718    0.00919322509295    0.49548121479232
O          -1.15952298581300   -1.56629764909538   -1.25467096447308
H          -1.76069286391366   -0.03231390098774   -1.39801317928403
H          -0.36254526681612   -1.13427265982870   -1.60751977761191
H          -0.96862752510167   -1.78535013345915   -0.32610945373568
N           2.65136616451495    0.20393542048581   -0.49451203709620
H           1.74643758629764    0.30718461576185   -1.13329879493893
H           3.24803518892588   -0.54657661748664   -0.82672558131343
H           3.15119909955202    1.08739194834185   -0.49716273248844
