    23
        -45.36262163  Gyration_radius:  2.44688386507 Dipole_moment: 2.537
 S          -0.35611276515096    0.36869638829608   -0.93084839989145
O           0.91941135746446    0.87423520048921   -0.49351142690305
O          -1.14450781760257   -0.08648688575814    0.31520049464364
O          -1.18813346419022    1.50603731426337   -1.52253866676744
O          -0.30510485611940   -0.70553957485432   -1.88229918190252
O           0.89851041141610   -3.22312653694234    0.60254405388401
H           1.26724397309144   -4.09864468073167    0.47456771942834
O           2.13569459046916   -1.51346456919707   -1.04415866948049
H           1.41742198108274   -1.45894875643748   -1.69142817715991
H           2.15504883685171   -0.62371429922370   -0.66683660118620
H           1.44955520097407   -2.60946085758240    0.06341272445489
O          -1.52172957830581   -2.50575826699835   -0.24761162761329
H          -0.70562513153059   -2.88649779078589    0.15782750464951
H          -1.41293296328281   -1.07325878117215    0.18667548254464
H          -1.29318650916963   -2.31364622627365   -1.16752981029774
O          -0.98370434597358    3.51382044587523    0.01512020248986
H          -0.64380622007661    3.06709867161907    0.84877931689234
H          -0.25193825526222    4.02825482010442   -0.33358085964188
H          -1.16720689260897    2.33374999614353   -0.91636168065282
N           0.06876218287823    2.07513406725173    1.95132292141353
H           0.61808864287163    1.56679753133128    1.26078567124120
H          -0.62902860730164    1.42968605187878    2.29999450885487
H           0.67328022949177    2.33503674869514    2.72047450097842
