    23
        -45.36262161  Gyration_radius:  2.44720223197 Dipole_moment: 2.535
 S          -0.98863435990079   -0.27139964804095   -0.27778997372909
O          -0.82027084892144    1.05422638645327    0.25903233513072
O          -1.45377792966070   -1.26287967413017    0.65094495549776
O          -1.94631418385176   -0.22961211129807   -1.46806210932881
O           0.36069425386195   -0.72188213995021   -0.87596338640246
O           1.76728052692438   -1.41417087679647    2.53774394676765
H           1.97212722276542   -1.80801602873221    3.38738874415343
O           0.78825729807588   -2.79329123027422    0.48023744189731
H          -0.14148095675243   -2.79639797637476    0.74634735183730
H           0.63184268840235   -1.61143007165394   -0.43188446107586
H           1.28131553212824   -2.38532582890719    1.23253440651942
O          -1.30712302944400    1.74544921876839   -2.92675532461551
H          -0.37737029456465    1.92361960906523   -2.58945914875429
H          -1.70620413367711    0.53402471976060   -2.11012273144707
H          -1.85061043981264    2.47505360566113   -2.62016423860838
O          -0.45087556911330    0.06334690242806    2.78271540817693
H           1.01528645661257   -0.79671859512658    2.69335335382260
H          -0.44483582804591    0.80081464915091    2.15787000122533
H          -1.04411626808462   -0.57457703646050    2.35946305700148
N           0.99786653546813    2.06077966817696   -1.69638467399790
H           1.59231084664063    1.26622948579674   -1.89748481297591
H           0.53860051868175    1.86514222079721   -0.80872404585959
H           1.58603197228277    2.87701473167645   -1.58483608523605
