    23
        -45.36262157  Gyration_radius:  2.44700248376 Dipole_moment: 2.537
 S          -0.46377922042979    0.90336766054177    0.31263362004496
O          -0.96685098533651    0.70605299199947    1.64302908435861
O          -1.00123477459395   -0.21121328749114   -0.60942485921032
O          -1.06060591424508    2.19328948766299   -0.24907789987492
O           0.97049161226792    0.93515957651200    0.18770337045884
O           0.07171664582638   -2.87857254196343    1.80660176116631
H           0.12891545478318   -3.47685776321214    2.55338823097779
O           1.27297635270677   -0.57498290513352    2.44956189752558
H           0.61458066610578   -2.09052520169321    2.04145946819668
H           1.64486848234154   -0.14944486051024    1.66539816593196
H           0.45751941371036   -0.07497503205834    2.60155690636845
O           0.09171091475299    2.70173835236798   -2.45155100252636
H           0.49338797748615    1.80326881741249   -2.65498017810576
H          -0.65116927952812    2.42412629098520   -1.16128543133373
H           0.82390450536962    3.28110793691379   -2.22805169814746
O          -2.17971457992228   -1.66057091482863    1.07086598362679
H          -2.15349046046414   -0.92898041613575    1.70276180336079
H          -1.56156559077542   -0.86184951349770   -0.03961161106432
H          -1.42850276809733   -2.25333316030020    1.31528820425201
N           1.15459345393119    0.29790948629865   -2.58760903984232
H           1.33837983520325    0.33429121572751   -1.58661700738199
H           1.98610792032000   -0.03588213738734   -3.05862672927181
H           0.41776035846496   -0.38312408216954   -2.72341305949514
