    23
        -45.36262117  Gyration_radius:  2.44759230422 Dipole_moment: 2.524
 S           0.52011798428521    0.15992172069878   -0.91195721293558
O           0.62050984638243   -0.38339738970329   -2.33690820432186
O          -0.99382579217470    0.20884210719822   -0.61679068367230
O           1.12532413657589   -0.76833001491840    0.00782792165620
O           1.05440884234662    1.49254801082384   -0.89043227774767
O          -0.44419235684308    2.34763640719972    2.42359651279495
H          -0.26657251931488    3.08488228393247    3.01008365276018
O          -0.02419449517518   -2.83700410714656   -2.29625289721286
H          -0.48913852531561   -2.88582588536530   -1.40656994559537
H           0.33354658955965   -1.36769785435266   -2.37919539099497
H           0.80131052025822   -3.31702771135687   -2.19719388600069
O           1.88537180457278    1.26402105566725    1.67308489360754
H           1.78266712655848    0.32212542970666    1.48124739538785
H           1.90340752007030    1.66395900691333    0.79133675075117
H           0.42327022883844    1.91030015565446    2.25882608373553
O          -1.27280182193059    2.64950912176631   -0.08946990106437
H          -1.10593522399273    2.61685675210833    0.88350372530399
H          -0.41351767669699    2.82294932526359   -0.49785070934434
H          -1.25658860796507    1.18774227015034   -0.43061506903278
N          -1.00254640665214   -2.66456431206486    0.14058927814447
H          -0.22896220508072   -2.05415724625172    0.39781794576952
H          -1.11705613004933   -3.36537030912383    0.86196753433485
H          -1.83460286821445   -2.08791881683496    0.12335448366878
