    23
        -45.36262140  Gyration_radius:  2.44690490795 Dipole_moment: 2.543
 S          -0.24269749442800    0.25392629587573   -1.00351334350265
O          -0.07035813548186    1.38069925230635   -2.02167382772746
O          -1.33579483084795   -0.57860021208930   -1.42057989984864
O           1.01399807397276   -0.42115543850455   -0.80652762800844
O          -0.61506889958270    0.96858018407459    0.31263935756884
O          -1.68487674645986   -2.26080820141920    1.89675391900871
H          -2.16744697095770   -3.04889512552127    2.15135789409117
O          -0.25595763878629   -2.79162750929397   -0.30347610358490
H           0.54667002646610   -2.25356722400707   -0.33122686437232
H          -1.09355576367781   -2.52615242639014    1.15457447528049
H          -0.84561733552190   -2.33344733996966   -0.92005869723164
O           2.05786786540977    2.63969513760638   -1.45298298017606
H           0.76123389520074    1.94426185611402   -1.81254107765750
H           2.20245945555330    2.33033529047104   -0.50783766168070
H           2.74652474040298    2.22868418121007   -1.98072090646489
O          -2.82728137195398   -0.11568187675445    0.80633037769701
H          -1.54885249876826    0.64522474498691    0.60481034990902
H          -2.86361615409556   -0.42877515241468   -0.10794712650808
H          -2.50589772884598   -0.88216249144111    1.33977447622465
N           2.24677093685262    1.49644632203539    0.91008312114844
H           1.48364575213065    1.81553020146262    1.49400722152721
H           3.04861842332991    1.32252948773107    1.50287852240041
H           1.94923237004938    0.61496005390366    0.49587639190954
