    23
        -45.36514200  Gyration_radius:  2.2849434192 Dipole_moment: 7.089
 S          -0.95452023491443    0.92263754296858   -1.42685605783480
O          -1.22386770118629    1.93072204248130   -2.39125046943807
O          -0.04322437699058   -0.14868390171619   -1.93188567864603
O          -0.38713628967528    1.43606117868434   -0.17161314047716
O          -2.28558485872705    0.19074535909011   -1.03884432984391
O           0.04227113883100   -1.27872477185134    2.05399900231888
H          -0.01254369734477   -1.75781449846071    2.88186650913391
O          -1.83215562137352    0.55562464938679    1.82695847294542
H          -0.68514968780894   -0.60045966140298    2.07477667064910
H          -1.34722512648825    1.03236005183808    1.11336069031204
H          -2.67244948176202    0.30694716883086    1.43461074006009
O           1.73868341230093    0.69832528416859    1.20014039504834
H           1.34500787921073   -0.09681512906005    1.60417821896512
H           2.24799897717244    0.45898672293365   -0.21446889485392
H           0.95886223362645    1.19177951765259    0.86375753754003
O          -1.06619645542154   -2.02450455872040   -0.37493535767565
H          -1.99727503463499   -0.71008431145185   -0.74913062043144
H          -0.48945095994624   -1.63071529241842   -1.05210103600693
H          -0.61449151010869   -1.90490878988968    0.47849903682354
N           2.34569000314341    0.37399704619941   -1.29215496908335
H           2.62828702004965    1.26659802799560   -1.68425664840212
H           1.31303446829469    0.14679315942105   -1.63758184434288
H           2.99143589375362   -0.35886683667931   -1.56706821676054
