    23
        -45.36262150  Gyration_radius:  2.44697176315 Dipole_moment: 2.539
 S          -0.33487130978022   -0.88946132859161   -0.47455890567042
O           1.00076015837865   -0.59474048745113    0.23995584988881
O          -0.16409161850639   -0.72862829705527   -1.89116099949773
O          -0.61528699744043   -2.36289209771973   -0.18054167712960
O          -1.35475908645734   -0.06972735964156    0.12678089626709
O           1.40204101243798    2.65041665099593   -1.60129289401528
H           1.57278988851886    3.31969850363685   -2.26589111488413
O           2.39259666744062    0.17974905772394   -1.70318557698497
H           2.18528976890420    1.14452527471040   -1.66445193601666
H           1.69235279289241   -0.31028702640510   -0.46910846951995
H           1.74179622155218   -0.20472650122306   -2.30644898315264
O          -1.12281519637738    1.79958440837762   -1.85731120263644
H          -1.47841099755301    1.51269698102432   -1.00541358220683
H           0.44027953183285    2.44363118001816   -1.65770775959477
H          -0.90381415007994    0.96326044895442   -2.29364366624888
O          -1.24384542090602   -2.57410542365225    2.26867595420438
H          -0.89688945118915   -1.69821237614412    2.61857465811282
H          -2.20174770586341   -2.51469850799398    2.29246303831129
H          -0.84027083832765   -2.50663485255134    0.81016892323086
N          -0.40411368782866   -0.14086168613839    2.81657565204245
H          -0.66803263602732    0.50518114221862    3.54976456816579
H          -0.80125649281916    0.18340837298614    1.93668633158840
H           0.60229954720866   -0.10717607609322    2.71107090571595
