    23
        -45.36262137  Gyration_radius:  2.44681412248 Dipole_moment: 2.540
 S          -0.57567329255078   -0.67928929745801    0.58065532028905
O           0.03953670094149   -0.85632373189465   -0.82353276408953
O          -1.95810572187065   -0.31218550491484    0.45346988159478
O          -0.49504763888958   -2.06641006677850    1.21734801479378
O           0.24830168384908    0.24381372351041    1.31734811703266
O          -1.28537580057988    2.46929685257176   -1.94810325467693
H          -1.84686819061302    3.18515194313893   -2.24995850718815
O          -1.88286862976089   -0.10793819066377   -2.25781774009272
H          -1.66854259490163    0.85469302622789   -2.30978714792729
H          -0.68005008635854   -0.62657034364310   -1.52441263018361
H          -2.47233536445230   -0.20534500121161   -1.49739846651794
O          -1.42413683251669    2.32500257553616    0.72079936852065
H          -0.59801051745718    1.98515204258303    1.09021720131928
H          -1.27926489858508    2.51858161555641   -0.96401222113948
H          -2.00857870841082    1.55340019417455    0.75043247108321
O           1.93973313985983   -2.55796552825120    1.73539428279936
H           2.38857371794078   -1.87062669941612    1.15566729384804
H           2.07065060476658   -2.27384412426321    2.64306756672095
H           0.47746302355847   -2.32790497323106    1.41373200097424
N           2.78308234181284   -0.54218332687981    0.26858190219862
H           2.01042676547129    0.02208063798801    0.61758061097717
H           2.58438645942648   -0.73658246137998   -0.70499467665628
H           3.63270382934398    0.00599664871513    0.31572339630058
