    23
        -45.36262144  Gyration_radius:  2.44676370679 Dipole_moment: 2.545
 S          -0.68854582762759   -0.23030015956425    0.77622353385921
O          -0.40114528340248   -0.97758923705236   -0.54301463450118
O          -0.41482137692737    1.16798714974209    0.56751889712732
O          -2.18353262993462   -0.43429761882211    1.02011272723167
O           0.03984379626871   -0.85240549935133    1.84596992846376
O           3.30245993059663   -0.80071968362091    0.02707702944749
H           4.19565190243449   -0.94785436134235    0.34252884308909
O           1.35167183155770   -2.60315835309777    0.23049608629528
H           2.15399278427188   -2.05162472219609    0.06509770172080
H           1.09455547859645   -2.42546536527540    1.14570782056305
H           0.28097727484275   -1.72556570098170   -0.35022235848771
O          -3.45639697938679    0.94557136385870   -0.68682628254179
H          -3.62908810633437    1.78671154852630   -0.25742989244621
H          -2.72881163636919    1.11495091479169   -1.35909369203907
H          -2.74426950682265    0.07700340916424    0.32943046319279
O           2.07610830474753    0.91781401947164    1.67259913309394
H           1.54249373649782    0.25343407714202    2.13286599555750
H           2.92433854670247   -0.08649838325567    0.59079466442948
H           1.41319811435558    1.43700377627701    1.19798251364314
N          -1.30045893018570    1.36104026047334   -2.13793506114942
H          -1.06462371109775    2.10644958880937   -2.78086610081912
H          -1.00258282597444    0.48366183012296   -2.54609676932459
H          -0.76101492632313    1.48385113856425   -1.28292054906924
