    23
        -45.36262143  Gyration_radius:  2.44652723124 Dipole_moment: 2.544
 S          -0.89269175880173    0.09436635755684   -0.57051349171667
O           0.39634848188840    0.94196625670572   -0.60771485124957
O          -1.87364130002744    0.75291585330795    0.24555074334956
O          -1.38948838570485    0.07980610047754   -2.01582793170268
O          -0.53903970887950   -1.24085601836528   -0.16319872660630
O           0.44934022516466    1.23726197924151    3.13112642745237
H           0.27404990734921    1.48746877164633    4.03975027541558
O          -1.24311929955344   -0.71330973154436    2.42792964650177
H          -0.11502281503039    0.45082766900971    2.94711632726952
H          -1.83138925668620   -0.15219483626584    1.90159130501964
H          -0.84499419844817   -1.29224959723982    1.76400758021489
O           0.18576307529663   -1.37220792695361   -3.37526685666636
H          -0.20208806582123   -2.25031562075355   -3.36236019213341
H          -0.76302067013676   -0.46748810702397   -2.61654752395823
H           0.97820690060604   -1.40355414249949   -2.75793459999232
O          -0.20068081372223    2.74693409287977    1.03518617876625
H           0.26177364666336    1.76415712582779   -0.00121576520286
H          -1.12994737207410    2.48934528647772    0.96208908847763
H           0.13289968358444    2.31780590874920    1.85972629836218
N           1.99504345295117   -1.40925467926794   -1.46434519636761
H           1.25057157086739   -1.50143958734834   -0.77563240390476
H           2.37974236034617   -0.47922360351765   -1.35401032475425
H           2.72138434021020   -2.08076153113804   -1.24950599659370
