    23
        -45.36262138  Gyration_radius:  2.44667380039 Dipole_moment: 2.538
 S          -0.24230125448615   -0.59844417378214   -0.84542137843733
O          -0.64625195353674   -0.47698758622359   -2.31441732189331
O          -1.34632488756262   -0.21743382644170   -0.00310444022631
O           0.28389435275598   -1.91562294359483   -0.62158283857632
O           0.88313606217186    0.44140381596074   -0.66085577267428
O           1.86094455630141   -1.03458942059195    2.64851054694351
H           2.22035143902730   -1.59520961018908    3.33805655340112
O           2.74638556197043   -1.04365826513858    0.13628475594071
H           2.57402298024746   -0.99639051728222    1.10760387839362
H           2.25297009345167   -1.81244338525179   -0.18107076806331
H           1.74083322388701   -0.05492864253292   -0.37820716963424
O          -1.86611274044302    1.72733851884987   -2.61579558045790
H          -1.58470649318514    2.20460785238473   -1.77739215665636
H          -1.11348835156940    0.41823427043436   -2.49611370174290
H          -2.79770221786031    1.52072126495677   -2.51011643152745
O          -0.55108707672143   -1.96110394981879    1.94974398357476
H           0.93646568341858   -1.34021192970016    2.49737167813046
H          -1.12057717596045   -1.24361550654962    1.64099427753797
H          -0.26318461031010   -2.37958479571438    1.12518399365522
N          -1.10030176008977    2.61375847904549   -0.25902165740326
H          -0.09893360392244    2.76299568741659   -0.27132086362139
H          -1.25269926717965    1.68437398410369    0.12858377394283
H          -1.51533258040040    3.29679067969319    0.36208662938556
