    23
        -45.36514204  Gyration_radius:  2.28503370612 Dipole_moment: 7.086
 S          -1.00657109789952    1.43834127724646   -0.84656820579058
O          -1.80027565032016    2.08475019700919   -1.83194754475285
O           0.45865132367631    1.50377229339759   -1.13336121816060
O          -1.19402305513331    2.15146162098772    0.53703070090790
O          -1.35670379007862    0.02687433707783   -0.63196089781343
O           0.69232895311550   -1.25472609990986    1.95067192626703
H           0.90216182516692   -1.72519200253352    2.75847106243291
O          -1.78206973431574   -0.35631886365715    1.92324873174936
H          -1.78021281477514   -0.23888317019631    0.94450392456262
H          -0.26048243921934   -0.97933201586577    2.02707946514493
H          -1.95718825956540    0.51807869803840    2.27921210674668
O           1.15930346328913    1.42515551175069    1.41455749856135
H           1.14610038859155    0.47907041655707    1.64120177039217
H           1.27214373398182    1.47802398185510    0.44977147892912
H          -0.35271464682060    1.97033882497117    1.02473433378109
O           0.13845030421519   -2.14299724146074   -0.58324139126600
H          -0.62422362857235   -1.52465397530826   -0.60966473382358
H           0.87242013091728   -1.34691114719280   -1.65391590815351
H           0.50518016494260   -2.01042955282883    0.31027273454217
N           1.19502603511506   -0.58326800166321   -2.35432256801062
H           2.19611558994309   -0.60504780300824   -2.51872015121340
H           0.89052350614355    0.37070633639435   -1.86969069137255
H           0.68605967760334   -0.67881362166033   -3.22736242366074
