    23
        -45.36262113  Gyration_radius:  2.44667701556 Dipole_moment: 2.541
 S           0.38378683737833    0.98315969571395    0.12502747849841
O           1.65941105732911    1.79855335165946   -0.08356991605479
O           0.86611196073895   -0.35035555380556    0.73395998127992
O          -0.44854801390977    1.66822662710582    1.07363330204974
O          -0.22715745623119    0.69896695002591   -1.14768253116234
O          -2.62923083231122   -1.29396082459981    1.71860536616014
H          -3.47709320688018   -1.36161506169679    2.16065410481426
O          -2.72660360245357    0.72476118864817   -0.03638128156190
H          -2.13678577429000    0.55840239875958   -0.78393586496941
H          -2.73963818138499   -0.61709560107012    1.01109046913450
H          -2.22203139795262    1.35161226436818    0.50249454899153
O           2.96717080042625    0.74764248557764   -1.98704206737619
H           2.69561247159019    1.22161978845397   -2.77656210022499
H           2.24317608796446    1.39058648419659   -0.82224561980524
H           2.52604038419465   -0.15424980645822   -2.03162895279358
O          -0.42704906562653   -0.35709639074138    2.88821772533168
H          -1.24140311455080   -0.82012850884491    2.57543754545447
H           0.44018332256330   -0.45385566082293    1.66655998307564
H          -0.60059361849171    0.58718324447698    2.77200786964114
N           1.48890912932288   -1.42953341306795   -1.96231256919118
H           1.66040018652274   -1.93532264166441   -1.10210528119223
H           1.28265056640348   -2.10203503228501   -2.69019034385093
H           0.66268148963730   -0.85546599392885   -1.80403184624884
