    23
        -45.36262143  Gyration_radius:  2.44673453636 Dipole_moment: 2.544
 S          -0.19106752107537    0.82703872464034   -0.63979290004075
O          -0.25273624230258    0.73580185129974    0.89947299253944
O           1.07193762271120    1.38434151044427   -1.03483824364718
O          -0.49306715578632   -0.47417701808812   -1.17772731229848
O          -1.29810425764283    1.81161325867933   -1.01497309407382
O           3.08025999529391   -0.98094045884853    1.04495593277223
H           4.01857810232874   -1.17673842924975    1.03941461623692
O          -3.53201925754418    0.67597767447409   -0.61800749218504
H          -3.24518497583999   -0.07971416904391   -0.02072532329848
H          -2.22587916498721    1.41060614724184   -0.83763931514953
H          -3.77025534466397    0.28018088060112   -1.45960823641267
O           2.08332525249282    1.44864446556859    1.48956601591631
H           2.18701427933528    1.80592690805173    0.59692163795093
H           0.64868442252318    1.05893628194808    1.28016281733369
H           2.52032829691106    0.56310506575730    1.47666721535671
O           2.16603007650780   -1.04971530639544   -1.46956532588885
H           2.11526044961570   -0.08947580835708   -1.58502162331199
H           2.76302521505808   -1.12162478358774    0.12274088024949
H           1.23809687197827   -1.31979084292678   -1.49147174391804
N          -2.42997024454834   -1.27881864465795    0.75688807040815
H          -2.06488412464411   -0.90812930974693    1.62549734440578
H          -1.65512768020745   -1.29281230476977    0.09616618504301
H          -2.73424462572478   -2.23023569305573    0.92091690198049
