    23
        -45.36262148  Gyration_radius:  2.44690404041 Dipole_moment: 2.543
 S          -0.19130676755455    1.03664080185813    0.13099226721436
O          -0.84105323166943    0.40986566751744   -0.99092749369167
O           0.10777801235113   -0.05274242874635    1.18219670313315
O           1.01616999808677    1.75254622108408   -0.17155428498817
O          -1.16312273475271    1.99009279025336    0.82548192249117
O           3.02028310083446   -1.33582193024993   -0.80623098707810
H           3.87973537212068   -1.44887273340972   -1.21538303156121
O           2.60483515928346    0.16105030611610    1.35746536133561
H           1.11740258368269   -0.03547883935517    1.38919365407231
H           2.86269394313535   -0.48115577459322    0.65288160138936
H           2.54901585529125    1.02211003751493    0.92063210243936
O           1.52323192979898    0.24835689920315   -2.35979244352897
H           2.46800523077034   -0.84124564711532   -1.45522202865938
H           0.58514559048629    0.03273022557999   -2.27158060620886
H           1.61554513336277    1.04233818015457   -1.81282403228216
O          -3.39930110372093    0.81261065881045    1.04994684875591
H          -2.07626517154180    1.54568596389876    0.97275477833841
H          -3.90077268109737    1.06673746676450    0.27173822463601
H          -3.11505477032414   -0.14044418957130    0.90519014811518
N          -2.36137653290489   -1.52950051550196    0.44766425361563
H          -1.78602369784728   -1.08051029452653   -0.26262198087680
H          -2.77996402923852   -2.36051778018970    0.04915292567221
H          -1.73560118851941   -1.81447508584794    1.19084610731428
