    23
        -45.36262150  Gyration_radius:  2.44681592034 Dipole_moment: 2.541
 S          -0.44065189282891   -0.80672427464681   -0.53346794079156
O           0.88608731417412   -1.03585851932207   -0.02259677446320
O          -1.10469282391015    0.28700540834228    0.32922955045272
O          -0.51679169230079   -0.43435276166808   -1.91820803766025
O          -1.30154695522178   -2.05033203283050   -0.31404529717093
O           0.87334039619691    2.98850068960776   -1.36292910468763
H           1.20457199520347    3.63628075609956   -1.98710567071663
O           1.97610235975417    0.61274928942901   -1.91502959941135
H           1.19524304448341    0.23713299285020   -2.34757324801766
H           1.38060993076068    2.16020301080725   -1.52858092356691
H           2.05946891064672    0.07635504224165   -1.11522976887969
O          -0.89365118859820   -2.88543214416971    2.04685349873240
H          -1.19929819316258   -2.40725664793817    0.64254128200039
H          -0.19267064823071   -3.53682038237242    1.96929066415114
H          -0.47651590867399   -2.06805165798312    2.45659917612793
O          -1.60345150669935    2.01028581794400   -1.42993806691595
H          -0.75963772936611    2.52143016286977   -1.38559722625588
H          -1.46737452452155    1.33664609634666   -2.11036811640650
H          -1.41164553427978    1.04911586044296   -0.29279116193546
N           0.32825846413279   -0.66333943268589    2.75090354817204
H           0.78840604520497   -0.64063734263485    1.84268134726697
H           1.01808531274163   -0.48218335103390    3.46919906725560
H          -0.34224518597063    0.09528341044129    2.75616279294884
