    23
        -45.36262140  Gyration_radius:  2.44649534509 Dipole_moment: 2.544
 S           0.82258769529342   -0.66650950539896   -0.10255573350671
O           0.27362437207700   -0.53574929089768    1.22229973275167
O           0.37778702005305   -1.80976474401251   -0.84886300111457
O           0.49116187987642    0.61980795935526   -0.88813306664243
O           2.34893085880531   -0.69441605116147   -0.02980602693820
O          -3.06543088146275   -0.46419400233614   -1.38624735608996
H          -3.86427224615282   -0.89569643678940   -1.69383238081398
O          -0.81491468811420   -0.34440159470976   -2.80597038597862
H          -0.01163123495835    0.35488535203835   -1.74764618214377
H          -0.46683845064582   -1.21973166095945   -2.58724454693396
H          -1.71810933927276   -0.30754010019623   -2.40817725707618
O           3.09526013978727    1.13556813893143    1.56137537392220
H           2.70385367380922    0.05367873094792    0.57623426959363
H           2.26122660183509    1.69526445371933    1.59517478345096
H           3.17187015657925    0.71206777417335    2.41955582408188
O          -1.94730933052513   -1.97208371354420    0.52153196744854
H          -2.74562976503644   -0.99041445830032   -0.61696764890532
H          -1.24317817719509   -2.33471235246079   -0.03584216820403
H          -1.46263938117163   -1.42383439642571    1.15310405577072
N           0.71612366922397    2.26075079674173    1.57673025017911
H           0.26037261042572    2.84340596869583    2.26769751992612
H           0.29038314210961    1.33583293110349    1.59708814785181
H           0.52677169451716    2.64778621145651    0.66049381937652
