    23
        -45.36262118  Gyration_radius:  2.44687730985 Dipole_moment: 2.542
 S          -0.75694501195880    0.72345802440351   -0.18493250447068
O           0.57541167343549    1.08203027143223   -0.59729950352537
O          -1.43834408812727    1.92644219093638    0.46644235921024
O          -1.61225139732456    0.21710164648463   -1.22124484986607
O          -0.64468789250511   -0.32225313667326    0.94446951996060
O           0.19255489316470   -3.04170454549758   -1.50234823120634
H           0.15009228803841   -3.72458185370683   -2.17368758284960
O          -1.91094919253419   -2.23464410095414   -0.08159626266838
H          -1.16174283684082   -2.68408741066872   -0.54212764917237
H          -1.17883384023892   -1.15851201209337    0.66684238274576
H          -2.28767503295787   -1.62232929495806   -0.72836863560647
O           0.47225290681456   -0.66475154531229   -2.70039166776570
H          -0.44658178175589   -0.38274502119093   -2.58162627852662
H           0.96170810212461   -0.05078041435884   -2.13656936116311
H           0.40279250639084   -2.20260419966580   -1.97413447370913
O           0.21286886489442    3.00012514401646    2.06612872891773
H          -0.82087411586982    2.37540536122419    1.15193381351333
H           0.87975268745296    2.25455589185219    2.16312709953990
H           0.64881858516677    3.68951473283450    1.55968088139039
N           1.84748590040748    0.94063598557409    1.95282042126552
H           1.40530285829998    0.14319467818207    2.39296094607258
H           2.84588626150264    0.87434509483587    2.10579011160958
H           1.66395767243394    0.86218451330340    0.95413074639671
