    23
        -45.36262152  Gyration_radius:  2.44690318661 Dipole_moment: 2.541
 S           0.47251908183360   -0.35910153169418   -0.88129184214282
O           1.10707228856916    0.13790837249329   -2.17975105701502
O          -0.95760767202681   -0.20345132956206   -0.94660268200911
O           0.94058725612584   -1.69178647117697   -0.62259850485208
O           1.00970076471413    0.59382155913467    0.20718286007373
O          -0.16684666127898   -1.68776573689861    2.94553994728660
H          -0.25491843610152   -2.40720893096256    3.57285103620121
O           0.01899739727715    2.34575895441754   -2.79544663327690
H          -0.70574084122804    2.11828394142205   -3.38262441120776
H          -0.39665760278585    2.59243249794906   -1.91430277144963
H           0.72435214155148    1.04982045708715   -2.45346457555390
O           2.12348986839321   -1.05463218811740    1.74172745229463
H           1.54545647640203    0.03764600093193    0.88965104600542
H           1.35674794999327   -1.25791730457123    2.33007586200785
H           2.09390200876900   -1.71352084045341    1.03438548907596
O          -1.34110742166031   -2.39480768443802    0.64646332397928
H          -0.52090600688523   -2.58783223660196    0.16897192362663
H          -0.70086126533122   -1.94125270528406    2.15724949709074
H          -1.68446153617600   -1.61954284670011    0.18226669977161
N          -1.08932569449379    2.59820155244451   -0.42182602811817
H          -1.29656181117707    1.60112451947714   -0.42371736753747
H          -1.91528517677087    3.10124227875460   -0.12289758064900
H          -0.36254510769074    2.74257966235905    0.26815832639403
