    23
        -45.36262151  Gyration_radius:  2.44694651024 Dipole_moment: 2.543
 S          -0.15699581211993    0.22458144210503    1.02655917662017
O           0.47320407349050    0.01089945293279    2.40241533504401
O           0.61582764692604    1.18310184219414    0.27976724294112
O          -0.03466300900671   -1.14317025706337    0.32251988085474
O          -1.54483616782503    0.54827522240880    1.20304559613762
O          -2.43947927235972   -0.10483589237102   -2.36539539564720
H          -3.22962594500916    0.11657903735075   -2.86096905630870
O          -1.61704687591143    2.06611651558079   -1.03312984417805
H          -2.10917771600929    0.73964034387868   -1.97984194358237
H          -1.94480713829643    1.78317104137188   -0.16680404763915
H          -0.65770313822739    2.05624284997663   -0.91538251185629
O           2.98009315424679   -0.22962323700054    2.09395329904725
H           3.02105707600184   -0.42879076108253    1.10970350084206
H           3.33706426780321    0.65447876269754    2.20636182748970
H           1.48712711369771   -0.12836387757452    2.32776590299304
O          -2.45224933626323   -1.61550062934388   -0.17162629568942
H          -2.51247560892118   -1.18947351435033   -1.06059014773550
H          -0.98346059091329   -1.48323578561475    0.10707078536411
H          -2.70272351177548   -0.93191043289015    0.46499626620305
N           2.75070777317763   -0.53757967943513   -0.50951866628395
H           2.03005042423399    0.18189931022184   -0.52097358883518
H           2.28630886501656   -1.41714806308061   -0.69882761187851
H           3.40380373804288   -0.35535369091558   -1.26109971390996
