    23
        -45.36262094  Gyration_radius:  2.44688329211 Dipole_moment: 2.540
 S           0.30452563750130   -0.15120322290472   -1.00775611375157
O          -0.25346957402781   -0.16699057644345   -2.43043208394080
O          -0.74280673893448   -0.91177764218149   -0.16746573687482
O           1.54496349592221   -0.87447521365384   -0.99361546666575
O           0.36812036439846    1.20364147325285   -0.52390803092181
O           1.63172957512564   -1.20656380534131    2.72658223975612
H           2.34461262315959   -1.47212605204087    3.30986254635751
O           2.55697721195105    0.62969863042960    1.01312815084110
H           1.85201575262109    1.23208696237039    0.73987490847213
H           1.97906548176461   -0.45774493547355    2.18843000031062
H           2.63612181753669    0.03098650417846    0.25610833580718
O          -2.27242634260858    1.36776546204993   -2.50475871381024
H          -1.09685205278083    0.41295351595797   -2.50352093032661
H          -2.46598904241406    1.45821074190483   -1.52255873706246
H          -1.93667134564205    2.21945129437741   -2.79400003835042
O           0.68417022351361   -2.75215334224643    0.77530205930735
H           0.98848100906603   -2.30251207191789    1.60035757227640
H          -0.28915148738675   -1.74090875130367    0.24340365815810
H           1.35514304284944   -2.55693271310834    0.10676458881505
N          -2.39079669617983    1.54342901460815    0.11813013023446
H          -2.76676827610096    2.26567335953931    0.71948526174458
H          -1.37383314048405    1.58599593253243    0.15258170336721
H          -2.65716152885546    0.64349543539653    0.49800467628083
