    23
        -45.36262088  Gyration_radius:  2.44647080878 Dipole_moment: 2.534
 S           0.98348229466417    0.04723139388572    0.40322040635268
O           0.24555367918570    1.03863227719824   -0.52090477331052
O           0.00052828850368   -0.62847138149903    1.21016811220752
O           1.82904291530169   -0.80313957703666   -0.38663186983368
O           1.86565397699990    0.92576369967471    1.28961573126828
O          -0.87790450240396   -1.73606912439221   -2.78433664185903
H          -0.91181040006999   -2.43029618746668   -3.44459036035829
O           0.36075389094287    2.19347727145155    2.89139107990438
H           1.29830990425113    1.48853015713907    1.93327997066417
H          -0.52747085682491    2.07532768892844    2.43600570804398
H           0.32903721215498    1.66070677927814    3.68943619353126
O           0.96851637976218    0.18367179716700   -2.77004103479638
H           1.67857659186715   -0.31157817004403   -2.33893574115192
H           0.24293368345032   -0.46803755130844   -2.92555571004926
H           0.50296618458898    0.82655382796336   -1.49606442915115
O          -0.01386442215209   -2.78100222827570   -0.47662714834427
H          -0.66291396274862   -2.17730744323391   -1.92991954258646
H           0.88968984487298   -2.43913883024509   -0.54250483181141
H          -0.37499491672410   -2.29466873101073    0.27683108270229
N          -1.81387523582787    1.54569505474178    1.55847227833617
H          -2.77734171418379    1.46235489242535    1.85742709243977
H          -1.43523658881606    0.61178595349672    1.41147185728993
H          -1.79963224681325    2.00997843115662    0.65879257049927
