    23
        -45.36514200  Gyration_radius:  2.28496110219 Dipole_moment: 7.089
 S           0.51417414917501    1.48790346842532   -1.14925708319127
O           1.31090898534007    2.14997288239706    0.02752227232188
O          -0.79758323483128    1.11625572249823   -0.59933641345175
O           0.44389937377210    2.38648049123175   -2.24764421536331
O           1.24745995940003    0.22486982292801   -1.46610839343967
O          -0.28366586600966   -1.00674557286085    2.18263814034664
H          -0.39739364610376   -1.33298927038570    3.07623654132106
O          -0.78809951585193    1.56890808836670    1.97969877975960
H          -0.89766780948379    1.52001586557857    1.00124069296783
H          -0.51866691943856   -0.04037144162634    2.20579443403699
H          -0.06913132222859    2.18974515219887    2.11949861761408
O           2.07850241776139   -0.14516700405789    1.01602036026872
H           1.32862438766836   -0.57608122738173    1.46180785635919
H           1.97402905227883   -0.32008110592329    0.06480661080660
H           1.68810482479656    1.38670106271895    0.53128414400577
O          -1.84644572467177   -1.23998110329750   -0.05794220939656
H          -1.71998151855026   -0.27937899831736   -0.21925115496385
H          -1.03835971816884   -1.59584928463116   -1.29823229910576
H          -1.36016279730401   -1.39505037538598    0.77265708034247
N          -0.38620575303604   -1.57272599979040   -2.16553870113645
H           0.36101479252529   -0.78678187779598   -1.91785012024331
H          -0.90949367064195   -1.27462873717187   -2.98264460778043
H           0.06613955360245   -2.46502057771738   -2.33540033207851
