    23
        -45.36262153  Gyration_radius:  2.44674415218 Dipole_moment: 2.542
 S           0.30512835910118   -1.00898948222972    0.13572287622162
O           1.28849763189551   -0.11984344477818   -0.42650127264544
O           0.96485006514683   -1.92544268490207    1.16567038153048
O          -0.69739263941080   -0.16327246981551    0.94890072417516
O          -0.41028738786774   -1.82011730018796   -0.80878161702250
O          -2.39968637215503    1.03238739976073   -2.17320605725467
H          -2.93762025490056    1.09654193152236   -2.96405257439980
O          -2.83852059643629   -0.73932319580684   -0.23307215769905
H          -2.83008436053590   -0.02805087888586   -0.91812525792305
H          -2.39656085384300   -1.49872347421628   -0.63713280645246
H          -1.64543822995848   -0.35153966751084    0.59156668783714
O          -0.03825746986500   -0.05007641578086   -2.81850535156212
H          -0.23085904555890   -0.93085321099277   -2.46485187069437
H          -1.50830796235693    0.73385662355870   -2.46851005732193
H           0.65999921545807    0.27072523371786   -2.23211311835454
O           2.49002399254961   -0.51023287611288    2.61779427620383
H           2.13009580810825    0.40609111978067    2.41583975556724
H           1.56703592434324   -1.39273835997445    1.80325960894688
H           3.35438628163124   -0.55885585346802    2.20279906459692
N           1.44523476503078    1.73781358760606    1.73387933524048
H           0.48759286352317    1.80627590853823    2.05535184925778
H           1.41141803846282    1.34147143204425    0.79640271355811
H           1.82875223742417    2.67289609830742    1.67766482836136
