    23
        -45.36262095  Gyration_radius:  2.44645441948 Dipole_moment: 2.534
 S          -0.59310273437755   -0.09884114580803   -0.87742165196169
O          -1.93335372844860    0.30381488915267   -0.55589565380940
O           0.38758663909155    0.95571608850711   -0.89040926758053
O          -0.12603518996978   -1.17558173992423    0.12453233525647
O          -0.60786942885528   -0.80843287033511   -2.23089899842574
O          -1.17656015057193    0.93392452422346    3.04597021976120
H          -1.68747489460639    1.38794705328107    3.71821996380665
O          -2.07334385459666   -1.18997015412475    1.71225766281335
H          -0.87462019864368   -1.31986810340441    0.81794785336095
H          -1.76093213610554   -0.49681732008608    2.34260791296689
H          -2.60094082660121   -0.72358649955673    1.04936471982427
O           1.79515581967816   -1.23344190122017   -2.92541543283401
H           0.34408565063581   -1.03592394195048   -2.53924329053304
H           2.03903493376971   -0.48484321447174   -3.47478120245021
H           2.26280452546600   -1.10337085620352   -2.04530780771638
O          -1.09512399861739    2.45859045933684    0.84778149791044
H          -1.75652108629400    1.95529324320737    0.35088396897550
H          -1.07795492084132    1.56831804094834    2.29837810858104
H          -0.28227591761810    2.29853059384584    0.34956318693443
N           2.72171415724183   -0.64574112500660   -0.53354487613282
H           2.42134497384242   -1.35713634870836    0.12131947588337
H           2.04740317016684    0.11468463720893   -0.46877826004453
H           3.62697920628171   -0.30326430891882   -0.23713047458433
