    23
        -45.36742366  Gyration_radius:  2.47538594444 Dipole_moment: 5.016
 S           0.64489732543858    1.07439503363597    0.04650912214229
O          -0.78465102092956    1.14651458001530   -0.22850434454154
O           0.88424309194130    1.12024742745853    1.50409402717701
O           1.25713229423246   -0.09011186824990   -0.54923653861844
O           1.28232879205008    2.36766474435085   -0.56062621597731
O          -1.61724381060859   -2.51156715728442   -1.72759837762723
H          -1.21733658708154   -3.00651011242594   -2.44483061811936
O           0.07970981242193   -2.27912107904931    0.30445995595714
H          -0.63342838455203   -1.43159729585625    1.23150102500392
H          -0.55765302894571   -2.48022090160331   -0.42488993375710
H           0.67697101203525   -1.58680137415503   -0.06841895089646
O          -1.56387294154860    0.04796913040622   -2.49802369391996
H          -2.33469639555296    0.56747269531387   -2.73292957824567
H          -1.17730054440271    0.48328301901943   -1.70666436205255
H          -1.63778271966057   -1.57574233181748   -2.03240603246018
O           3.24658940133171    2.26619185901079    1.22054825567705
H           3.30330507653563    3.02856393878071    1.80101172829158
H           2.50498622688727    1.72062693728889    1.55058694897335
H           2.16538295235654    2.44043879993938   -0.14326074346035
N          -1.06951934082591   -0.56027405966660    1.78332987831182
H          -1.59481604315501   -0.01180047955195    1.08979143632734
H          -0.24478759893853    0.07152764306025    1.98009377511756
H          -1.61245758905430   -0.80114914861276    2.60546323671316
