    23
        -45.36742371  Gyration_radius:  2.47533273878 Dipole_moment: 5.017
 S          -0.12780956310055    1.24225244080266    0.11492345978259
O           1.20197323265280    1.54494522286998    0.68406886363620
O           0.01576703077787    0.69104085632247   -1.22668534918081
O          -0.88495534277993    0.37232096072480    0.98420473350571
O          -0.87800049546431    2.60631370387015   -0.04059489426351
O          -1.22209631498493   -3.12974838555004   -0.78716430506328
H          -2.02840559188776   -3.49411256349376   -0.41780251320011
O           0.26950201595045    3.51760495888459    2.17175947365345
H           0.81750325713848    4.29609934062279    2.04927001323658
H          -0.72848778831358    3.08028182820346    0.80339147062431
H           0.79130916589647    2.75698284382191    1.84668254149154
O           0.24615160509421   -1.99621853291696    1.11613214543617
H          -0.27388207767748   -2.52119407399153    0.45844476586949
H           1.34627325546140   -1.41734140961527    0.38058613807395
H          -0.27412523783896   -1.16650737919042    1.24240136359206
O          -1.94946545154504   -0.87698885131292   -2.02929333970566
H          -1.29638574794630   -0.23583588198640   -1.67210080197474
H          -1.94997821878084   -0.74927632675847   -2.97952482765431
H          -1.49890347708394   -2.32499446815388   -1.28205654697576
N           2.00830924054016   -0.74558866835501   -0.22299582194165
H           1.49838873465945   -0.54201243292903   -1.09265721661491
H           2.94836357917565   -1.09432715337139   -0.37602820420084
H           1.96895419009167    0.18630397140465    0.27503886200824
