    23
        -45.36514205  Gyration_radius:  2.28489627508 Dipole_moment: 7.085
 S           0.51186310715538    1.80676763637960   -0.52004387622905
O           0.91157129953616    2.14212391928684    0.95826812916578
O          -0.81275277032961    1.17252219199978   -0.45381259611913
O           0.54458326766690    2.98949948210916   -1.30672683752892
O           1.48910416785749    0.77024875267249   -0.97163929189773
O          -0.59532272592613   -1.64794606371107    1.66921214405043
H          -0.85133084606671   -2.24108416166134    2.37671641721029
O          -1.44766550671730    0.81174193802926    2.06078239452466
H          -1.32839583185175    1.05589018783989    1.11319848164129
H          -0.98077106501276   -0.75939311508998    1.89611950393447
H          -0.88647966490853    1.41986161114773    2.54774145064566
O           1.79867503207342   -0.26944302254584    1.43934493724910
H           1.93694998228287   -0.15306530558742    0.48352565512034
H           1.28511284870812    1.29705443655888    1.31171726323344
H           1.04730193372842   -0.87950049539317    1.53903208614377
O          -1.56564128114065   -1.31793015192159   -0.87377673574187
H          -1.56181379680222   -0.34699406650860   -0.72542840044465
H          -0.45684962190638   -1.20409408669605   -1.91121978374034
H          -1.25664165932567   -1.67730048173632   -0.02184874685193
N           0.35870902870710   -0.85912974385352   -2.53874043157103
H           0.89760325910953   -0.12594396601444   -1.89854113189401
H          -0.01154058769916   -0.37055779672810   -3.34776458080364
H           0.97373143086157   -1.61332767857557   -2.82611604009642
