    23
        -45.36742369  Gyration_radius:  2.47531656461 Dipole_moment: 5.016
 S          -0.10915366564743    0.45316319159025   -1.16442769807710
O          -0.03934621832334    1.40618221397888   -0.06390447495497
O           0.71877678943981   -0.70762019002967   -0.93441719294252
O          -1.51408036662605    0.06942848673449   -1.41501584143889
O           0.39175488829470    1.20692967261774   -2.44051924322596
O           1.82875551151875   -0.68475392418300    2.84502018134711
H           2.65464311353504   -1.17184175025574    2.84224451942699
O           2.23633376311182    1.43802217379639    1.27197181879303
H           1.45078371653438    1.40018641326315    0.68313301668524
H           2.29220409447027    2.34523475914429    1.57706522374005
H           1.99511513202527    0.11953109148694    2.30224868787152
O          -1.08041692152957   -0.37365165389822   -3.98203653637708
H          -1.74835072537610    0.07959844974648   -4.50147274161994
H           0.08978923624318    0.66248495983479   -3.19661664914140
H          -1.42725751772680   -0.42625738516168   -3.06910613672614
O           0.02863547246187   -1.89214183954425    1.30743619603993
H           0.68742389047646   -1.53441545944756    1.95293958232675
H          -1.09336347964759   -0.98376550737615    1.34223516701334
H           0.37780719954260   -1.63041305323631    0.42159006103516
N          -1.81436741823770   -0.14845435033725    1.15064270834286
H          -1.98558198616780   -0.17725642751236    0.10763960768001
H          -1.28014712885705    0.72437965399642    1.25315413886765
H          -2.65995739959511   -0.17456954506211    1.71019561516223
