    23
        -45.36742384  Gyration_radius:  2.47508239579 Dipole_moment: 5.013
 S          -1.25257596105706    0.06351390517748    0.01172266795469
O          -0.63310875561420   -1.23938872653751    0.21945488254058
O          -1.42232625166887    0.75688802453199    1.30554284473911
O          -0.51328262044808    0.87582960879513   -0.92605452022039
O          -2.68678171519828   -0.20860445653701   -0.55095124495832
O           2.99639197537886   -0.81274601258670   -1.50578247179071
H           3.24726820637693   -0.51649085963810   -2.38249556466066
O           0.72929092178139   -2.19195716312220   -1.83027443738966
H           0.64217062435485   -3.14062740019570   -1.72215182422020
H           0.15363062978612   -1.78902043738718   -1.14362999313966
H           2.18696262463046   -1.35828253188745   -1.63326958342222
O           1.96205545920509    1.19425989118905   -0.10429442232388
H           2.45049506210273    0.50342499802968   -0.61696569489158
H           1.07285075667414    1.24141047408984   -0.53136087373497
H           1.54667094691659    0.55774797333392    1.12326291059580
O          -3.54809541782738    2.08376673081937    0.47128024446404
H          -4.25269080438080    1.99645207559911    1.11730462722855
H          -2.71993460218262    1.83615063193795    0.92880783163058
H          -3.17411465453699    0.63249002245869   -0.43101782430289
N           0.98220357404959    0.00504685192355    1.91726500908561
H           1.44422489515900   -0.04166360113950    2.81898067891300
H           0.75603441612745   -0.91735950613965    1.52248134881350
H           0.03266068041514    0.46915951729098    1.94214540906453
