    23
        -45.36742382  Gyration_radius:  2.475062411 Dipole_moment: 5.013
 S           0.03227483593052    0.93625227468131    0.83383973204982
O           1.42636057002487    1.37421644320546    0.61402700114909
O          -0.75989446197916    1.08528771200978   -0.36455146269997
O           0.01075594018309   -0.42975126442336    1.34171937118329
O          -0.55688460484827    1.84253144478570    1.96487349296757
O          -1.64576480024585   -2.51159646459643   -1.70009655913031
H          -2.46128710647361   -2.37755649739359   -2.18617852840310
O           0.08446546369383   -0.56461309695821   -2.22695210443449
H          -0.54197208091871   -1.32552735654701   -2.14173129698307
H          -0.32138333836251    0.15576221878367   -1.68687148547662
H           1.18944365867393   -0.85950031678572   -1.34585891144200
O           0.84626154188172    3.91002976931623    1.07134601881875
H           1.47354017862884    4.27238001805778    1.70113325212769
H           1.24865456921961    3.09136748370205    0.71871690969123
H          -0.29202587778236    2.75506538611622    1.72726379337963
O          -2.18210823653035   -1.80279848892815    0.82124989658188
H          -2.23624977437619   -2.40783538013596    1.56300541774376
H          -1.43224123635995   -1.19995687874172    1.02006320593727
H          -1.85782453770955   -2.29363048060921   -0.76385369376796
N           1.88286899608881   -0.93631275705458   -0.46951669660459
H           1.99300518691006    0.05826911402392   -0.12821704640270
H           2.76026554242234   -1.40969110751694   -0.65627579502154
H           1.33973956191441   -1.36239176493603    0.29286548877754
