    23
        -45.36742372  Gyration_radius:  2.47530497775 Dipole_moment: 5.016
 S          -0.71899122223477    0.87764565341298    0.53355304216645
O          -1.22899525345664    2.33857499000108    0.76375975844290
O           0.70561270588343    0.88082402450529    0.84176113050966
O          -1.44303635404170    0.01352117512470    1.48900215988853
O          -0.98112034411582    0.48523116838361   -0.83141027710908
O           2.33331721477944   -1.02857810904880   -2.32495463438837
H           2.24767424367539   -0.87429982860023   -3.26741426114810
O           0.03382544495732   -1.89121531142891   -1.30958672414684
H           0.30736079922054   -1.96535029859259    0.10657763746863
H          -0.46274957433883   -1.03772836625997   -1.29953183784199
H           0.89677071509638   -1.67451823139142   -1.74203722881754
O          -3.66356927120252    1.43072961865220    1.30166542738593
H          -3.98495301383688    1.63857466909825    2.18196062791219
H          -2.20410264880394    2.26531282440609    0.81980874314836
H          -3.03132976983191    0.69161984517314    1.40439235371976
O           2.30859563263965    1.39254668024974   -1.19133200215385
H           3.06187135005786    1.80957897407318   -0.76954163262276
H           2.36957282121584   -0.13491379694586   -1.91366445814658
H           1.63732173957428    1.27160821307756   -0.48425609894506
N           0.44677824943573   -1.73636337862810    1.19388133936392
H           1.12276638711788   -0.96270304856219    1.24231239642518
H           0.69815428376928   -2.53150371930137    1.77121255585794
H          -0.45077415557046   -1.25859373731908    1.48384197306276
