    23
        -45.36742371  Gyration_radius:  2.47531708734 Dipole_moment: 5.016
 S          -0.85654995354416   -0.90746301934249   -0.12161342130301
O          -2.30468347015159   -1.46725749655739   -0.31384428378271
O          -0.87866706770935   -0.10517422692289    1.09507650483737
O           0.03526568378679   -2.07252822980147    0.05484567381222
O          -0.48227714267959   -0.13108193319487   -1.28048669814105
O           0.95078912447227    3.31707349073155   -0.02948037279444
H           0.78250590436650    3.91131856044687   -0.76290973532469
O          -1.45060291126106    2.44975157091840    0.76330970904201
H          -1.87332563160388    2.68314953007490    1.59160660775321
H           0.06351240278249    3.03434880762887    0.28979244875744
H          -1.30678364858412    1.47855431548934    0.79910010720119
O          -1.34718669519933   -3.56152409634376   -1.63216927569659
H          -1.53503117027829   -4.41159629008393   -1.22781339751096
H          -2.21409753021931   -2.20145341113893   -0.95578462517753
H          -0.61727454564830   -3.16416337204367   -1.11652081717373
O           1.86853495594064    0.98443516837432   -0.91229723714250
H           1.96134401476049    0.19136955945179    0.29113091044563
H           1.02380898636385    0.60251981774743   -1.25246100777835
H           1.63026514377260    1.89827985054774   -0.61775625248723
N           1.74799420405611   -0.47470923553005    1.16573778491520
H           1.29011815070726   -1.32995991058596    0.74517981181343
H           0.96409625036457   -0.04371958734689    1.67327925222601
H           2.54824495551674   -0.68016985243091    1.75407831365744
