    23
        -45.36742371  Gyration_radius:  2.47541881744 Dipole_moment: 5.017
 S           0.60341383012774    1.08095395308944   -0.20063903529720
O           1.61088164792086    2.02146919577891   -0.94098445400951
O          -0.36811489750888    0.64581582368302   -1.19622925357353
O           1.32013216663198   -0.02830087530300    0.38386056163777
O          -0.06296355456477    1.89573286373011    0.83676778644949
O          -0.53920920198339   -3.35040415098197   -0.62559220340544
H           0.15255015380584   -4.01372973141707   -0.59697949530010
O           2.11652424159524    3.30507738587509    1.32592062470934
H           1.90114865761654    4.24044140977485    1.31664943241923
H           1.26974893646056    2.82633807712021    1.42715901205426
H           2.07786758184731    2.50880305721918   -0.23127578468860
O          -0.36161071431650   -1.72931894449495    1.47297279778499
H           0.41073549593648   -1.18528006173604    1.18569566711808
H          -1.38907761030558   -0.74674857498697    1.21624165174112
H          -0.46066865783785   -2.41628292754625    0.76808928069770
O           0.23164124400234   -1.58234141679091   -2.47710067026715
H          -0.27593442425041   -2.72547222942918   -1.33915423822089
H          -0.19026064841470   -1.45915018854482   -3.32918962026621
H           0.11995000542255   -0.73292248746447   -1.99628502827379
N          -1.97021521602847    0.14086440699810    0.85853894606294
H          -2.91589779643337    0.20857924457772    1.21896723798031
H          -1.92196289825802    0.12405138275276   -0.16863509124023
H          -1.35867834104709    0.97182480767887    1.09120187586035
