    23
        -45.35981436  Gyration_radius:  2.32613156278 Dipole_moment: 5.669
 S          -0.05304216982599    2.08596025416303   -0.50593828243804
O           0.59880709973113    2.26431321872595    0.89581732807806
O           0.93810250407307    1.10750848923433   -1.20244825774596
O          -1.30909517072436    1.39749356494508   -0.31771330977400
O          -0.08344244753520    3.29920744050023   -1.22967821065827
O          -0.20939971454642   -1.43806374528270    1.72913104155585
H          -0.29644930126880   -2.30655620634553    2.12336876432203
O          -1.11068596069960    1.04908390129704    2.33543593018605
H          -1.74510081364226    1.13246686616136    1.60902896751690
H          -0.81773106320517    0.11615879335903    2.31877143163787
H          -0.03626665476663    1.85264226486768    1.57264286947315
O           1.95669914898321   -0.24449321980635    0.72816260336510
H           2.17157964140929    0.46223879598239    1.34331091089618
H           1.22794259559951   -0.76405530443784    1.13739001810304
H           1.36629116215527    0.53078007882548   -0.49414155584032
O          -1.49013416741302   -1.29470986739320   -0.48318751841452
H          -1.60379058770535   -0.32828942298658   -0.52705885193099
H          -0.88301739776264   -1.51208045017849   -1.22952179486402
H          -0.74483168961070   -1.45744314191326    0.86735345038563
N           0.33677046530441   -1.54157440556254   -2.48357435630805
H           0.63495721976865   -0.57230573516292   -2.43339739765706
H          -0.00093548908093   -1.71706196314059   -3.42143721374310
H           1.15277280076302   -2.12122021585180   -2.33231657614850
