    23
        -45.36514203  Gyration_radius:  2.28508630414 Dipole_moment: 7.088
 S           0.62604672033447    1.70857256156423   -0.69798456074635
O           2.11688002992407    1.28358905191792   -0.46428861577212
O           0.56880029271374    3.08101920416511   -1.06119501614575
O           0.11343775631439    0.79457502655301   -1.76344195723316
O          -0.09127988037521    1.39136166827449    0.54531480680410
O           0.34317830423011   -2.04910600047683    1.24200584125624
H           0.53760964591880   -2.82434074700592    1.77031487767313
O          -1.88619003019755   -0.46052789323041    1.08629643614545
H          -1.26414477903069   -1.20790299257139    1.15592029830418
H          -1.30103866431696    0.32708023797041    1.13257565662533
H          -2.27396212719391   -0.13816125859125   -0.35031834934096
O           1.66512243475100   -1.22385526173370   -1.05117896946284
H           2.12954369356542    0.31241113745494   -0.65152179334377
H           1.18763822433945   -1.65046277064099   -0.31863620376013
H           1.00123515105984   -0.73615082628968   -1.56853305287033
O           1.53379900639350    0.11488319158029    2.15375016842636
H           2.41447745923964    0.32427029104382    1.83367870112481
H           0.93079401704601    0.71524232109678    1.65613498880617
H           0.81439637210504   -1.28888189659143    1.67721464167483
N          -2.32511805109245    0.26966600145985   -1.35486270110259
H          -2.69770906956644   -0.39471218691208   -2.02523136480164
H          -1.26951443406932    0.52794282200535   -1.59289132953609
H          -2.87400206209370    1.12348830895788   -1.35312251272428
