    23
        -45.36742374  Gyration_radius:  2.47534615692 Dipole_moment: 5.015
 S          -0.23166438612830    0.92037606692842    0.81970935459706
O           0.77315418296992    1.15841880634109   -0.20897778728026
O           0.11596910662318    1.87156998522734    2.01213465438652
O          -1.56673871646794    1.31847142993503    0.32682340730667
O          -0.22878805501815   -0.44892951633315    1.27888927287960
O           1.94772114610738   -2.57215124009674   -1.22413287770508
H           2.25996224484603   -3.30336639924500   -0.68824022922457
O          -2.43329927550707    1.92232606765584    2.74723813255561
H          -0.69399616162952    1.90229813049946    2.56196261787974
H          -2.83898072527477    2.79216665661712    2.73343793866164
H          -2.38820656794377    1.62237965705038    1.81743345100686
O          -0.61977979533113   -2.08949511555056   -0.73647347126903
H          -0.53097613588872   -1.63683001283218    0.13664264573378
H          -0.88888276617813   -0.91343982077165   -1.53041657461565
H           0.30010659975742   -2.36944217476677   -0.96895854299095
O           2.92385704589595   -0.36496377926271   -0.07396999377018
H           3.60580736263442    0.19485188923850   -0.44919254252268
H           2.11986829422045    0.19612277178936   -0.01095604909750
H           2.34530682816384   -1.76454456737673   -0.82562906510197
N          -0.99085626493865    0.13616556269529   -1.90722983065528
H          -0.05431957112827    0.55715781693362   -1.84815561744949
H          -1.50727686733446    0.64705742457877   -1.13895443154464
H          -1.41798755259871    0.22380036070474   -2.82298446182980
