    23
        -45.36742383  Gyration_radius:  2.47525871818 Dipole_moment: 5.015
 S          -1.21408576465445   -0.31382513975535    0.01329111396916
O          -0.72650508172537    0.66032478864751    0.96148849043060
O          -2.48649205230066   -1.01541398404161    0.59336693549924
O          -1.61710733378512    0.32723500488376   -1.25577143530085
O          -0.23972509992925   -1.36666261692326   -0.24493583030549
O           3.14084688592000    0.08621988429957    1.42659651422544
H           3.31359067358816    0.42395367358981    2.30719987195870
O           1.39889510183112   -1.91612450691561    1.74974277751455
H           1.59686939717955   -2.84434632049039    1.61394605528102
H           2.53499843085526   -0.67944224242051    1.55201273509182
H           0.71107167327698   -1.68785462210415    1.08649633311930
O          -4.02002123072260    0.93643087809742   -0.34480364340249
H          -3.16778080730301    0.95919095440929   -0.82399133067521
H          -4.68263284898037    0.65713096372954   -0.98066760128442
H          -3.20601238171844   -0.35652457251024    0.50686126725395
O           1.51872248724321    1.72441005884161    0.10456766875315
H           1.27960104387211    1.02121571981146   -1.13449601448037
H           0.66769102804173    1.49373545929254    0.54908250977593
H           2.20426214480939    1.19931803923867    0.58727055349772
N           0.88466976939098    0.34360869333575   -1.93353845672454
H           1.31467161018370    0.45814091118177   -2.84497821215468
H          -0.16077569061777    0.50240200169171   -1.92607723934462
H           0.95524804537166   -0.61312304595461   -1.56266306277737
