    23
        -45.36514204  Gyration_radius:  2.28505481129 Dipole_moment: 7.088
 S          -0.41408928198499    0.07269411024887   -1.90316540563309
O          -0.18820676785650   -0.02399758717179   -3.30260548792553
O           0.27629564211067   -0.95911965762656   -1.11597669427123
O          -0.03872042301285    1.40326071336456   -1.33564919071566
O          -1.94308048081265   -0.09482393027233   -1.59994998223587
O          -0.58190798101958   -0.53096931862588    2.28847128222951
H          -0.86539101683841   -0.79054802001331    3.16605782978744
O          -1.82357922033522    1.29473594953563    0.61157917911847
H          -2.08226433331721    0.39499543151186   -0.75197602128359
H          -1.39283995603708    0.76725713678940    1.30646918076136
H          -1.11118645715289    1.66348716181280    0.06125474916095
O           1.82893831960995   -0.77203863573186    1.00511307377982
H           1.11780198693172   -0.63142982887899    1.65695702302991
H           1.34981270233483   -1.10308753679623    0.21412663819332
H           2.23198343093892    0.50309397006621    0.27731738127773
O          -1.47285593525149   -2.15803026564714    0.42030088409647
H          -2.32460236116756   -1.97264961841507    0.01771439520272
H          -0.80615302610199   -1.84773686392835   -0.23612318603931
H          -0.94562429605056   -1.21413727342295    1.66365738674479
N           2.31893077396054    1.32356125976301   -0.42787813584856
H           1.30133269559298    1.40576019026741   -0.86986728871949
H           2.97212854652393    1.07744157814045   -1.16479098874504
H           2.59327742893548    2.19228105503057    0.01896336803405
