    23
        -45.36742381  Gyration_radius:  2.47510110173 Dipole_moment: 5.013
 S          -1.09414820595172    0.32230624038604   -0.52165936728386
O          -1.05956783378166    1.76875745007459   -0.22112527882486
O          -2.41333690003709    0.05407690148456   -1.31879420352320
O           0.00713871702747   -0.03119217434677   -1.40855318183718
O          -1.09418607798988   -0.46535806854717    0.68889649915861
O           2.36192573102582   -2.33758031819793    0.92939822308092
H           2.16235949396898   -3.11390109404197    1.45553471753078
O          -3.67703946861370    1.90326519868668    0.10437125636925
H          -4.02515009060277    2.63673502779742   -0.40777264708250
H          -3.11166448071914    0.53721574757989   -0.83077037901218
H          -2.71473625939977    2.05591119371785    0.18899798214455
O           1.18892673086355   -0.18671957464545    1.95910779463151
H           0.26154039326570   -0.35890321512962    1.66652125493918
H           1.69571622273024   -0.98586741292429    1.67071501319868
H           1.49897493361970    0.84694046667353    1.00005522311368
O           0.83351347916012   -2.53281780358133   -1.25545605532391
H           0.42238864064771   -1.64111925483294   -1.28848089518746
H           1.15929843909569   -2.70457018691516   -2.14065742562530
H           1.83239037713107   -2.43433682794582    0.10521441038836
N           1.50017100601355    1.54129429440569    0.12113419389432
H           2.22425017381226    2.25140553642268    0.13603646242317
H           0.51682193933834    1.92788077266815    0.08490145811007
H           1.52441303934781    0.94657711124790   -0.71761503525571
