    23
        -45.36742377  Gyration_radius:  2.47519238201 Dipole_moment: 5.016
 S          -0.56617788961515   -1.11605581116568   -0.07880476315350
O           0.87710340616376   -1.06637633156560   -0.27596776714434
O          -1.26155774915991   -0.91578700889357   -1.36721794981543
O          -0.90183889047514   -2.56745099957883    0.39920423936876
O          -1.01440838082576   -0.16641046797187    0.91272772070239
O           1.95044709613730    2.31793985641739    1.65216289718618
H           1.77720524362313    2.61722728946244    2.54645679376740
O          -3.33997736511307   -2.36809793425916   -0.62872113906979
H          -2.77568764944995   -1.68573598261589   -1.04401743090481
H          -3.54049720038060   -3.00974174351848   -1.31394321134941
H          -1.86742817719290   -2.66510418809037    0.26705746284203
O           2.28868045139506   -0.32823041245254    1.82820008542592
H           1.69070133250906   -0.65045425838894    1.11842577840232
H           3.12119060017106   -0.78549754028598    1.69755822782967
H           2.11943127322644    1.35093376655848    1.72575937711246
O          -0.29661761109730    2.26859678000566    0.23413999472828
H          -0.70280506813518    1.45191687108138    0.61262729333994
H           0.53040062028535    2.40458020279145    0.75968167786584
H           0.12293970198944    1.70234135042801   -1.02621432349620
N           0.40340210173776    1.00913244655785   -1.85997460290957
H          -0.40543011869931    0.33153853945467   -1.92754129939017
H           1.15343887919653    0.40704617422949   -1.49565190129513
H           0.63748539362672    1.46368940187943   -2.73594716007535
