    23
        -45.36742376  Gyration_radius:  2.4751814473 Dipole_moment: 5.015
 S           0.98934187378273    0.37128841185066    0.67515092825384
O           0.78538549661123    0.92727475950660   -0.64206392536774
O           1.80688949997200    1.38084080003256    1.54690816443952
O          -0.26761144092446    0.13947459126040    1.37569639749591
O           1.77457095516107   -0.87912102897892    0.61453307525093
O          -3.03460099675120    0.58467360145746   -1.53489186662516
H          -3.18588847176833    1.29711766585307   -2.15849998370914
O           4.08055396090496    0.40783818461169    0.58487041982884
H           2.72760713822367    1.31739137133770    1.21901766210355
H           4.66602679588303    0.02867024677117    1.24429498939220
H           3.37482355810361   -0.25097939239968    0.42858937352461
O          -0.74703251021791   -0.65567238786286   -2.07409315381573
H          -1.63970333701527   -0.24136771507166   -1.97335189332925
H          -0.11682903653676    0.01789623568159   -1.72145720156363
H          -0.62723035748506   -1.60722990764230   -0.99461065857007
O          -2.24562779826933    1.76323621148604    0.73128539328495
H          -2.76126628447704    1.80234251179925    1.53864774503743
H          -1.43973548762625    1.24628979054547    0.95162918605817
H          -2.78829571795563    1.02290737835468   -0.68849340073275
N          -0.41540596527624   -2.11355655794120   -0.01833386855573
H           0.60016300740926   -1.89683620444245    0.18029570280638
H          -0.64141499420016   -3.10190849755616    0.01053567665738
H          -0.89471988755667   -1.56057007866748    0.70434123814726
