    23
        -45.36514202  Gyration_radius:  2.28508360472 Dipole_moment: 7.088
 S          -0.58252850603324    1.85097292964474   -0.18194403250640
O          -0.22227060660935    2.13577671577425    1.31702958811964
O           0.57701597054477    1.15477482905756   -0.75796295623657
O          -1.71948851346676    0.88195234923624   -0.14144672103041
O          -0.90674822222600    3.06880848929787   -0.83811780010534
O           1.20482547084839   -1.75087406621299    1.15836904238884
H           1.72471333015277   -2.38786661175197    1.65011777289030
O          -0.92617677310510   -0.25409015302626    2.11007590829731
H          -0.25571128918878   -0.90199082128270    1.83202261071655
H          -0.43724144960623    1.29267652170019    1.78752604016028
H          -1.48877559670329   -0.08658176060764    1.33433738614393
O           2.29158636950254    0.64715044294878    1.15505728615259
H           2.06280997169477    1.25631676070046    1.86109752958417
H           1.70593082855796   -0.89247114871414    1.19590564597423
H           1.75796487212979    0.94098103295918    0.38009264179264
O           0.88833383194234   -1.34396202642328   -1.53450581675908
H           1.01419009975242   -0.38190627409694   -1.38138117920801
H           0.99332486208037   -1.72944084421868   -0.64526248216173
H          -0.56772074648638   -1.13246827544884   -1.92555519063462
N          -1.55956433450877   -0.72260299428616   -2.08796675052028
H          -2.28234591957056   -1.43445531466283   -2.06573496770230
H          -1.58343647236052   -0.21452538322354   -2.96636539662289
H          -1.68868716734109    0.00382562263651   -1.25538815873257
