    23
        -45.36742376  Gyration_radius:  2.47526786262 Dipole_moment: 5.016
 S          -0.54582333878869    1.12665274413162    0.06964899929141
O          -0.31637750084476    0.37785282231316    1.28314053335785
O          -0.89890122479466    0.26430852113811   -1.05113080506151
O          -1.75025184632944    2.10304631772096    0.27856752838958
O           0.62591981684735    1.95713329037730   -0.27842101388343
O          -0.04572101115861   -3.43426757812099    0.33333742076926
H          -0.31659013408559   -3.88670333297778    1.13409803025372
O          -2.15272910198742   -1.96973106870241   -0.41735697171540
H          -2.69152144959505   -2.13920264797679   -1.19210045795627
H          -0.83727477331168   -2.93140729601125    0.03399237451690
H          -1.73890434518852   -1.09096429001500   -0.56460746783163
O           1.57463206118705   -1.40826095001439    0.91023441853605
H           0.90681775058051   -0.76636052010729    1.25253706049680
H           1.05988096455902   -2.23329117499870    0.72876655213756
H           1.79168827734841   -0.78531815047420   -0.37445306973482
O          -0.12392638665053    3.92732231419299    1.31229867016910
H          -0.09181552603602    4.75671013532978    0.83009598326046
H          -1.39910177935896    2.83019712669432    0.83289231188114
H           0.41504265953656    3.28941139590286    0.80330133451255
N           1.70762316279183   -0.16447353690941   -1.30269448218391
H           1.55205901422005    0.82078593107860   -0.95210072261367
H           0.79365108795105   -0.38749681002369   -1.71829303974434
H           2.48162360307193   -0.25594322264012   -1.95175319685553
