    23
        -45.36742371  Gyration_radius:  2.47542155663 Dipole_moment: 5.017
 S           0.58611306833183   -1.10284866730695    0.11270632381653
O           1.83315906349636   -2.02802135611046    0.30381822063896
O           0.52561858462217   -0.23852094408506    1.28477714648816
O           0.72669423145852   -0.35158570378772   -1.11273175302357
O          -0.60009887737502   -1.98330347288281    0.06944739832528
O           0.00679647826604    3.43698901285817   -0.31246899135627
H           0.50069324179594    3.90797192649601   -0.98595357818967
O           1.82175185860198    2.05128149273408    1.07830544765622
H           0.68106330134943    2.96357446931373    0.22634402864191
H           2.07737687493447    2.23448015002878    1.98403913068708
H           1.41964873926547    1.15498822567811    1.08820997866129
O           0.70063389701659   -3.90563838077912   -1.19064629383112
H           1.70835788659845   -2.76322751417279   -0.33118815348935
H           0.54966500131507   -4.74067787299165   -0.74195584711068
H           0.00102583676297   -3.29514487591005   -0.88356467166645
O          -1.25743884916437    1.35271555171346   -1.37119039492098
H          -0.48901924912649    0.74216913190391   -1.47963272685331
H          -1.84841176589580    0.70808492665790   -0.22135385556949
H          -0.86268118431790    2.19600143577097   -1.03699566339613
N          -2.04003383567576    0.08166129594930    0.68665737664070
H          -1.31832791708730    0.33793343006990    1.37310235916364
H          -1.73805699184069   -0.89270426077985    0.40756572559024
H          -2.98452939331925    0.13382196971904    1.05270880311320
