    23
        -45.36742376  Gyration_radius:  2.47531132661 Dipole_moment: 5.017
 S          -0.34355699105583   -0.19808697154945    1.18964569827163
O          -1.28797147433532   -0.06342003807611    2.42966348219275
O           0.13097062577942    1.10943616513893    0.80111119410983
O           0.77418827621846   -1.07652340598958    1.59360563877889
O          -1.12605646295960   -0.83511373029828    0.13781045930924
O          -0.40888653291502    1.50143465484054   -3.07992329315033
H          -0.48894676268877    2.44908202573432   -3.20189464547635
O          -2.42586645065915    0.80706646443691   -1.46812110466450
H          -1.95948313475167    0.27247791016535   -0.78853092557083
H          -1.17813607663899    1.24113294208880   -2.52359736389171
H          -3.18769063786098    0.28863188275388   -1.73284046149204
O           0.80346413977742   -0.13558479368188    4.06127270679450
H           0.80500762694193   -0.86754617008792    4.68229666525789
H           1.07600708464223   -0.50406684154563    3.19733559224900
H          -0.69340843003030    0.10652065119356    3.18922197649663
O           1.56795177800447    0.94362968364600   -1.39335202307919
H           1.12468250285416    1.18979460291934   -0.54606992670710
H           1.47684144722889   -0.49038785800578   -1.24307155492243
H           0.91595260312812    1.18515082319405   -2.09701140006959
N           1.20635480991312   -1.52813203615181   -0.92168524077748
H           1.73427744295196   -2.26825142242734   -1.37143868557957
H           0.18914713391032   -1.61421429133855   -1.04652393182170
H           1.29515749251050   -1.51303023688845    0.13209711381194
