    23
        -45.36742380  Gyration_radius:  2.47529004155 Dipole_moment: 5.016
 S           1.14675282387006    0.05145810844352   -0.50501422463571
O           0.75626305180793    1.11507560306367    0.41189500799602
O           1.76280662914347   -1.06370161021424    0.24394747037167
O           0.04028376409888   -0.40673032600219   -1.31219456381845
O           2.25793713234835    0.64630334254998   -1.43189881994405
O          -3.28030990001363    1.04794331528463    0.22560472550673
H          -3.87793552438676    1.08539052686402   -0.52326290091674
O          -1.92535134704052   -1.23838905670453    0.22159700768002
H          -1.28357480176010   -1.03840720469521   -0.50167933961835
H          -1.01284812407838   -1.08192126479690    1.33063285962054
H          -2.52482796541310   -0.45196301700949    0.24962631490202
O           3.28551083662988   -1.77326285386293   -1.79399781482172
H           4.19209313946040   -1.87425989871313   -1.49514319685037
H           2.72511966761422   -1.79519294062840   -0.99278212055276
H           2.69123587056097   -0.12905680725160   -1.84473626177654
O          -1.23213962097991    2.64726153577534   -0.40315613581651
H          -0.46295561803788    2.06774638176382   -0.20915256121936
H          -2.54979692962109    1.67209904417529    0.01158845080136
H          -1.04111898452958    3.48710597118801    0.01803496985712
N          -0.14201681331014   -0.82383024566958    1.98526677728906
H           0.70371317882554   -1.17258921903790    1.45467415537345
H          -0.20414837218326   -1.16711693840985    2.93767916691908
H          -0.02469210308054    0.19603755392395    1.92247103366496
