    23
        -45.36742370  Gyration_radius:  2.47536043255 Dipole_moment: 5.016
 S          -0.79366029939851    0.95645622012825    0.16611497953533
O           0.45868930356717    0.97007486750816    0.91172525935969
O          -1.80751411432242    1.82678342501569    0.97990504838556
O          -0.61223501277458    1.61825223307017   -1.14273457040014
O          -1.32147003514740   -0.37880539736084    0.01013864534155
O           1.49703664863422   -2.93266127644600    1.03298375851293
H           1.00839342763361   -3.70750238243023    1.31615792066890
O           0.75029388543695   -0.96526669145802    2.68211668167194
H           1.25514368098987   -2.22144453243567    1.66914363923327
H           1.31148570448632   -0.56309632679039    3.34736909157014
H           0.53079819233482   -0.24883296389176    2.04672864511350
O          -3.12832725639671    2.41363991854743   -1.24546681047492
H          -2.53267250617635    2.03066297592688    0.35384062624806
H          -3.15895525375747    3.34872771472898   -1.46016470775515
H          -2.23507671426017    2.10135298448351   -1.49257424503220
O           0.43768775625116   -1.92254546416364   -1.18519928274632
H           1.21382641745837   -0.72411883999050   -1.40335265686907
H           0.86670067792270   -2.38961113203580   -0.42597559786733
H          -0.35941376727683   -1.48955344637256   -0.79505016505584
N           1.61825727989330    0.31991280679788   -1.38494798238186
H           0.78078385154304    0.93459190189999   -1.58218613365653
H           2.40774889093071    0.48522434287751   -1.99986308288670
H           1.81247924250459    0.53775907237767   -0.39870905054543
