    23
        -45.36742372  Gyration_radius:  2.47543548338 Dipole_moment: 5.017
 S           0.72822799038933    0.65602805393908    0.78247799646913
O          -0.32732030551467    1.45121422986805    1.44391427075991
O           0.54130873495779   -0.75758328383076    1.01184526574307
O           0.78436804837166    0.98095635718972   -0.63726372870633
O           2.09308644951731    1.10891263742430    1.39863797923513
O          -0.47568689616702   -2.42503490309745   -2.40845309977299
H          -0.17933685951624   -3.33208275614508   -2.31463367563888
O           0.93818179479847    1.45960547330975    3.76195291068183
H           0.97811581060710    2.35675466476206    4.10102549043321
H           0.23966957313227    1.45244713760507    3.07749847083225
H           1.94220564477607    1.13830952402437    2.36594714584365
O           1.72571440260937   -0.92137669249188   -2.20573439869169
H           1.44644927981639   -0.25233151162768   -1.54271496893156
H           0.34116753827681   -1.87644577737851   -2.37898546129716
H           2.12251516340650   -0.42779034172408   -2.92556969172470
O          -1.65023483401858   -1.59313132269651   -0.17427978961602
H          -1.92962895316258   -0.20272401945690   -0.44903559983635
H          -1.30629913375443   -1.97322789431668   -1.02037604304642
H          -0.84684995046963   -1.45475999579687    0.38292278117065
N          -1.86771749515513    0.90880416076744   -0.56873824993864
H          -1.50616166042743    1.25791145094577    0.36178408056278
H          -2.72519870518885    1.35613971654042   -0.87437910466621
H          -1.06657564818030    1.08940507208953   -1.18784258044992
