    23
        -45.36742378  Gyration_radius:  2.47525711062 Dipole_moment: 5.016
 S          -0.66532056164180   -0.28896562969682   -1.02296929452819
O          -1.71049268879408   -1.11614793535489   -1.84207873713284
O          -0.08138539771810    0.70379039899289   -1.94883505849496
O          -1.32497945842599    0.35483984889120    0.08886822455236
O           0.35922139105798   -1.22910879088064   -0.58607445770224
O           0.76903621514581   -0.37815656226688    3.34271749612890
H           0.12090898448806   -0.31925579011083    4.04684403011634
O           0.43139036973974    1.59745503903534    1.59758161853182
H           0.59340284778266    0.94479750696492    2.32313546877733
H           1.40021074660223    1.29668449978342    0.56971157323172
H          -0.36593619156314    1.25531218602338    1.12598435675526
O          -2.35918810837707    1.04302555124119   -3.24145783449248
H          -2.20389931456654    0.97163500322686   -4.18601827082096
H          -2.22684779558154   -0.45278063214749   -2.34475838845122
H          -1.48646121280638    1.19687515203908   -2.82767780323660
O          -0.06310252357106   -2.36442725234216    1.75854666861394
H           0.48539338369291   -1.13900350741003    2.78616718975149
H          -0.01873492398894   -1.94157158675961    0.87287811735235
H           0.37338203742450   -3.21308657821436    1.66635699360823
N           1.93317519423034    0.89142457582693   -0.32800281178748
H           1.26497928366495    1.05323153076130   -1.13125054286044
H           1.91212722825967   -0.13299861354424   -0.23895067493063
H           2.86312049514673    1.26643159608307   -0.48071785322508
