    23
        -45.36742376  Gyration_radius:  2.47536123854 Dipole_moment: 5.017
 S           0.29573957296144    0.53232539285170    1.09626598009990
O           1.30638154695537    0.42233064016332    0.07043416460371
O          -1.02542414172871    0.79925373029120    0.54150192203800
O           0.25567364204870   -0.67864928090695    1.94238659586841
O           0.63619536553722    1.73455449948701    2.03767919116386
O          -0.51271197789705    0.12871366677246   -3.41010646091410
H           0.13026196371005    0.47616630099295   -4.03076148611560
O          -1.05643772987907    2.13817645181162   -1.73252222037242
H          -0.74531071496211    0.88279725902263   -2.82163423562326
H          -1.89043462040866    2.60933591333919   -1.69140294654866
H          -0.95199932973583    1.69953438384359   -0.85967612696119
O           0.66758278308610   -1.46625047037544   -1.64205663145037
H           0.25039738150761   -0.95644196022265   -2.38009347800327
H           1.09960586422422   -0.78115562153544   -1.07721126724808
H          -0.40632727313204   -1.80504943134547   -0.73732994231247
O           2.20948085278345    0.17641443379928    3.49989677189767
H           1.37661669727305    1.42183619719522    2.59744194933844
H           1.94690389714651    0.08867275472054    4.41900615366655
H           1.60683013952005   -0.39498925704670    2.98330876935624
N          -1.16021802806855   -1.81227649724856    0.09053209485842
H          -0.59535886696690   -1.64153809590164    0.96800942144816
H          -1.74689157511631   -2.63874583119812    0.12947711126485
H          -1.69055545886781   -0.93501519855065    0.00685466992812
