    23
        -45.36742381  Gyration_radius:  2.47531010016 Dipole_moment: 5.015
 S          -1.19123594758082    0.11329706447319    0.37523795346931
O          -0.14676833960296    0.17745148924439    1.38986482904003
O          -0.78215288245625    0.72309430812160   -0.86838479912611
O          -1.61617999365100   -1.28742795299771    0.17208088637954
O          -2.42385203301211    0.88378486059768    0.95370898638592
O           3.10726989146427    1.31811744373429   -0.71772780521946
H           3.24498439526678    2.05614937080747   -1.31415867975597
O           1.40171724777318   -0.42496812406364   -1.77378494278705
H           1.22714927181042   -1.39484220385006   -0.71769693212945
H           0.56095851228128    0.07275693587552   -1.63075522286560
H           2.11271097098337    0.18917599029516   -1.46396830395140
O          -4.06724167805891   -0.58894521286608   -0.52006232719288
H          -3.21119153259620   -1.05733903382149   -0.45483771863665
H          -4.70062877861766   -1.10793784303338   -0.01917919432933
H          -3.18327910600567    0.60732768408411    0.40040245600099
O           1.49425471533576    2.23625572340508    1.20662845953422
H           2.55061642346815    1.67060620820558    0.01366484287222
H           0.80295661301371    1.53874513450732    1.23361189080725
H           1.75387655605674    2.38381130220910    2.11770907999237
N           0.88922198431118   -1.95206478304382    0.19286940664192
H           1.32473324965974   -2.85805056004132    0.32793635084956
H          -0.16428172808792   -1.98709085296289    0.10905969645528
H           1.01636219806477   -1.31190693837486    0.98778107754452
