    23
        -45.36514206  Gyration_radius:  2.28501284734 Dipole_moment: 7.084
 S           0.00090206960085    1.72672931079099   -0.90318904276969
O           0.91777105774692    2.33500882308991    0.21360064865166
O          -1.29755948800471    1.42050993865904   -0.22964990782218
O          -0.12729493978760    2.65030685199830   -1.97529218717897
O           0.61604785858127    0.44837114356082   -1.28865708658545
O           0.91361909386360   -1.56636209122825    1.60321665375050
H           1.34245602775321   -2.14698158713153    2.23318227943204
O          -0.18679974829769    0.92540294866116    2.11814121684234
H           0.11123492817583    0.00131754798543    2.05555980476900
H           0.62196742877737    1.89033549386057    1.04630493334922
H          -0.89660563177999    1.03323640690643    1.46178000524082
O           2.62690052124210   -0.03609109839651    0.31733912456696
H           1.63950859411675   -1.05261840662251    1.15748656508612
H           1.98280613959911    0.16465198989954   -0.40137020034206
H           2.85352152917392    0.81717343299732    0.69475730758555
O          -0.15259182211212   -2.03887164396047   -0.87823703955279
H          -1.51088216579471   -1.37620746618170   -1.06596302235465
H           0.31225011166112   -1.23812187242983   -1.20607614010974
H           0.12119707514339   -2.09185845889338    0.05591399398452
N          -2.31690402528990   -0.66709650835781   -1.22489718723120
H          -3.17442418500250   -0.94241185497237   -0.75745155419653
H          -2.47510618175713   -0.54192357678343   -2.21970680680385
H          -1.92201426760895    0.28550068654801   -0.80679233831131
