    23
        -45.36401752  Gyration_radius:  2.40227088403 Dipole_moment: 1.951
 S           0.82850879596377    0.07277019174927   -1.09280266619295
O           1.09608222691507    1.05719859809421   -2.08776414095701
O           1.07718955255732    0.67501154055767    0.31670433390785
O          -0.69212228843645   -0.20650232935824   -1.09616463193477
O           1.53748431250024   -1.17060274149727   -1.16037747549186
O           0.52819540948116   -1.07770229046391    2.44108851119018
H           0.85658346561962   -0.32513474234233    1.93099090647951
O           0.42986789094376    2.99248684025019   -0.33262300467472
H          -0.56245495152775    2.91494723157035   -0.39519839131094
H           0.84450319426554    1.68117763747745    0.19858674812645
H           0.75948330877808    2.79824360972445   -1.22275217871997
O          -1.15088777078123   -1.98736826463511    0.61965344126509
H          -0.91927453129149   -0.96067592228356   -0.41975932141678
H          -0.57121999312099   -2.73478451332122    0.41578511525399
H          -0.74834416928127   -1.60105091532168    1.43865616604372
O           1.43423825596101   -3.06356919185937    0.68343180963452
H           2.09473771788779   -3.73627048918365    0.51314763519681
H           1.55009134299983   -2.38551354802553   -0.01609369097622
H           1.08238331053036   -1.83067198103264    2.18767919364650
N          -2.14333393428901    2.36113765496635   -0.67143924506002
H          -1.92152418838379    1.41819453229258   -0.97897914205963
H          -2.66354762009990    2.81755236266143   -1.40999120103683
H          -2.74663932724864    2.29112672994009    0.13822124902666
