    23
        -45.36401757  Gyration_radius:  2.40221640791 Dipole_moment: 1.957
 S           0.72734593598965   -1.14370366216466   -0.21803355672357
O           0.80734109540198   -0.19952916315549    1.01215233099343
O           1.80001455622791   -0.79222891956227   -1.10059899507559
O           0.63120876570534   -2.49560810599693    0.22206692683141
O          -0.61916621458441   -0.75927498639792   -0.87325179462349
O           0.92282870118022    2.53219609164170    0.37256506718920
H           0.97343356940657    1.69838431169684    0.85898485817272
O           2.36891156858419    1.67297054474708   -1.87064420781443
H           2.23918670337405    0.74155822771133   -1.59109519147488
H           3.20370505781541    1.69536702118407   -2.34012396293244
H           1.68321419233047    2.53505621541248   -0.22732207070722
O          -0.57532443524812   -1.66017956955999    2.48388956751210
H          -1.48986638260839   -1.50785045168527    2.11640133664825
H          -0.22660815301360   -2.42223910060708    1.99771674443953
H           0.25763320315216   -0.69751111450486    1.74038567805554
O          -0.42443912141189    1.60805628517248   -1.69996045356089
H           0.36062362270228    1.64803810742354   -2.26428921257032
H          -0.56915683030265    0.20468740321916   -1.25568381130877
H          -0.14527267372609    2.09546710967256   -0.88355032574699
N          -2.81183999307475   -1.23556278875156    1.08676481660685
H          -3.47276257374483   -1.99519121770279    0.98426456663850
H          -2.30445459302271   -1.13951846569596    0.21137762018395
H          -3.33655599083378   -0.38338375204639    1.23798408912458
