    23
        -45.36401753  Gyration_radius:  2.40249238905 Dipole_moment: 1.938
 S           0.11853052301371   -1.19541919577807    0.66261020134521
O          -1.12628885170941   -0.27945869092264    0.61892047271994
O          -0.31010799925562   -2.53091856896184    0.41084366404005
O           0.97508640864244   -0.68949837507497   -0.52990124849429
O           0.85570668983925   -0.93406339326072    1.86314155730022
O           1.85924542388192    1.96485206463823   -0.28316620572096
H           1.76524890762985    1.05087004685244   -0.58345317387732
O           2.00014344178460    1.37609367958664    2.45393784968106
H           2.56267220784411    1.28611813367759    3.22412722013909
H           1.63722873404769    0.48215765229707    2.27647970819348
H           2.30461675781676    1.91628237327717    0.57560746220382
O          -0.22835674465803   -2.04568712145734   -2.24036048715727
H          -0.38513188628661   -2.71091938076373   -1.55372481200708
H          -1.08706481604481   -1.54566375308145   -2.32519807713537
H           0.57830076532951   -1.19204995623304   -1.34837731561235
O          -0.36941921743049    2.06493946785363    1.12706772713404
H          -0.86021946803186    0.69573405943109    0.85450043422820
H           0.12108286390095    2.03195929230850    1.96040261798560
H           0.33860970699821    2.21025515294804    0.44916870699084
N          -2.48619620767120   -0.63740266958100   -2.00860493781380
H          -2.56458895040643    0.25289419866062   -2.48363726513446
H          -2.32689636729037   -0.45270697581272   -1.02197264494686
H          -3.37220190402792   -1.11836802165015   -2.09841141684125
