    23
        -45.36401747  Gyration_radius:  2.40241367906 Dipole_moment: 1.935
 S          -0.05776440953110   -1.07325991588252   -0.85202410200794
O          -0.63551725612125   -0.99539835229888    0.57994336897012
O           0.16986724433297    0.41667991574406   -1.22591371736096
O           1.22647877758425   -1.70717969633384   -0.80961060815824
O          -1.05838848378218   -1.63143975196310   -1.69929527187131
O           2.05044247603224    1.74385968513843    0.38344163673861
H           1.44806633513231    1.53054270557792   -0.34180412396047
O           3.34050292824210   -0.74270380239415    0.45402640492533
H           4.12589871472116   -1.24164792396752    0.22584858667950
H           2.60874448422487   -1.13283656108639   -0.07007798650311
H           2.81083523214748    1.15310566628041    0.27759671934412
O           1.15904233840307   -0.07019044002405    2.08017695456830
H           0.08710863027246   -0.64586532163932    1.23798053514786
H           1.94635346574811   -0.61843711589508    1.95547158209579
H           1.39588176844830    0.77888455319363    1.62728764314434
O          -2.17802804138739    0.80683835568908   -1.96585826735906
H          -2.21098881381325   -0.12238650808718   -2.23809354812441
H          -2.65947999682895    0.84399547952094   -1.09320952524462
H          -0.75971983078630    0.72870052814356   -1.57054107596458
N          -3.16771362145175    0.57433360710440    0.50400162522435
H          -2.45896293693477   -0.10114406127541    0.77669691654182
H          -4.07524021503608    0.14353235082157    0.62716442404354
H          -3.10741878948695    1.36201661352871    1.13679181898499
