    23
        -45.36401768  Gyration_radius:  2.40187828344 Dipole_moment: 1.949
 S           0.30245636599015    1.33949403460020   -0.04036960746720
O           1.68253669115306    1.46611935826291    0.32339462069834
O          -0.42631764791074    2.52523554572057   -0.34639951997408
O           0.22482529659423    0.35600900910448   -1.23963201291267
O          -0.45427318435739    0.59165369274121    1.08136366425350
O           1.52456593097999   -2.09690202596528   -0.81828669127237
H           1.08646298806206   -1.34959509996233   -1.24736204342373
O           0.86734693795098   -1.46850294824603    1.65930290622434
H           1.77028128470338   -1.18106207076335    1.85556261651297
H           0.07698544041981   -0.25232502081109    1.37077218319030
H           0.95523768333396   -1.91656098334451    0.77989492360977
O          -2.03794973847722    1.10086704881897   -1.97188928964079
H          -2.62074818563387    0.68630185747546   -1.27680748370241
H          -1.82029889118395    1.98191678476173   -1.63262449884894
H          -0.70130771350273    0.56018503288870   -1.66529991373659
O           3.33218882195008   -0.56858330495221    0.68756477417679
H           4.23369962256081   -0.25876697637624    0.78283811780961
H           2.40830418119424   -1.78217113760958   -0.57759371079129
H           2.78590968162704    0.22991910574339    0.52502524470049
N          -3.25016558088273    0.08955864143347    0.18266031443827
H          -3.45552875337348   -0.90093833073683    0.21635805144773
H          -4.04032844323783    0.58579134713513    0.57475796193701
H          -2.44388279796859    0.26235642983288    0.77676939274109
