    23
        -45.36401750  Gyration_radius:  2.40247851537 Dipole_moment: 1.956
 S           0.16064920086617    0.46454490630585   -1.28181009000393
O           0.47163940911648    1.72837990459192   -1.86199262192273
O           1.27804531051173    0.11661548018539   -0.27156075211277
O          -1.10074681442554    0.59830839324678   -0.38603680804389
O          -0.04956559430093   -0.65046560743343   -2.15675503989681
O          -1.84676977063326   -1.77017058111564    0.92580363338225
H          -1.86851800060128   -0.87697177840551    0.55686772665217
O          -0.88392682052962   -3.03758297739166   -1.38171198229424
H          -1.09504659161599   -3.58355416559466   -2.14000823468989
H          -1.91451827332524   -2.37066000073815    0.16875228100897
H          -0.61354178806707   -2.16587287069039   -1.74135815392760
O           0.75648971470912   -2.14207913798316    0.70424400910446
H           0.63629922081979   -2.75173552002908   -0.03742869966640
H           1.11473616887858   -0.82565541141042    0.13256928299804
H          -0.16374876861638   -2.01595933878602    1.04954666976047
O          -0.64397081113474    2.96166422361888    0.26020645758197
H           0.10688274042898    2.85253091510404    0.90740165605386
H          -0.22299682057885    3.08043669373878   -0.60429394307913
H          -1.04910525643551    1.57478588333509   -0.03356246723595
N           1.50709449608002    2.32865063874808    1.71165546521781
H           1.74492271527789    1.54692869268441    1.10724883364071
H           1.38329062085410    1.97072866680363    2.65027119265083
H           2.29240571280082    2.96713300128507    1.72195160478665
