    23
        -45.36742378  Gyration_radius:  2.47534204396 Dipole_moment: 5.015
 S           0.96481616630510    0.42527567187568   -0.67912993524794
O           1.11444222810132   -0.86115260554070   -0.01040303227473
O           2.40823857954530    0.99311119417442   -0.88336156338072
O           0.38362630997048    0.23341635121289   -2.02422191072376
O           0.18580179843061    1.35844424742806    0.10074769861945
O          -1.55982516916385   -0.64048343162971    3.01077654936875
H          -1.68688285291446    0.02035749179070    3.69378442887231
O           1.59442339868802    2.36659889953535   -3.00302696950335
H           2.31437624711787    1.69991423642192   -1.55486324220834
H           2.03339006168901    2.13574437605140   -3.82488770315053
H           0.94290060046006    1.65853111901929   -2.82795273571102
O          -2.18470581582864    0.35326277953285    0.62655763566619
H          -1.38525087601845    0.91290458017225    0.47563445933800
H          -1.83661474726557   -0.71821841528575   -0.27703071771314
H          -2.06734011015992   -0.01156830034456    1.53857172336319
O           1.08212179119975   -0.78450035062433    2.62740969337878
H           1.14340265801379   -0.71083605612505    1.64967451921645
H          -0.58488644927757   -0.72456449003958    2.90341393667924
H           1.63267460020094   -1.53123781341813    2.86934210558471
N          -1.29896962973757   -1.42570897147546   -0.95854663997083
H          -0.79409590936358   -0.80181893162424   -1.64697985708682
H          -1.88363407172452   -2.13251700203457   -1.39134945102139
H          -0.51800878793953   -1.81495457892622   -0.41415898213294
