    23
        -45.36742359  Gyration_radius:  2.47552591419 Dipole_moment: 5.017
 S          -1.18325827176611   -0.33763560844958    0.24111332710228
O          -0.92564174928583    0.95394847595655   -0.35165478764163
O          -2.62464113655385   -0.80984803355761   -0.14214715440143
O          -0.26665503069089   -1.36034897327680   -0.24703808348739
O          -1.13048673533061   -0.27103168021853    1.71653813807829
O           2.56224658291367    0.78634602700891   -2.17410613928397
H           2.49233325229401    1.45211504687819   -2.86051679601060
O           0.64141609051569   -0.99804455222441   -2.69860722416688
H           0.20770440130965   -1.08339852770185   -1.82125021430443
H           1.88421595243690    0.10767974014988   -2.39488683079341
H           0.79215563786514   -1.89384788744035   -3.00533282129397
O          -3.63842227040204    0.53375720424601    1.90921431938844
H          -3.22781172506864   -0.27429797917387    0.41348610401247
H          -4.09829639464570   -0.00595378790876    2.55625045257811
H          -2.68230492495139    0.40520484557679    2.06973461754634
O           1.55373255776540    1.69329753916197    0.11152915182961
H           1.64165808345631    0.54714188407618    0.98644056487654
H           2.01605724325123    1.43351310659377   -0.72358277556904
H           0.59231906505258    1.61887847705632   -0.10096648789885
N           1.45159345498959   -0.40868491262230    1.53770118315566
H           2.14334484349294   -0.64328891655528    2.24140727604015
H           1.33012644911021   -1.13692879481773    0.82180968346686
H           0.46861461422820   -0.30857270266720    1.91486449673412
