    23
        -45.36742366  Gyration_radius:  2.47550505331 Dipole_moment: 5.016
 S           0.35211046429860   -0.92450966674323   -0.77073443150093
O          -0.12853031795064   -2.06907225191460    0.03112131912857
O           1.39233629026884   -0.20640916675539   -0.04500234631278
O           1.02849645014996   -1.51728413523147   -2.05081342323215
O          -0.73863324211342   -0.06068368291788   -1.15803657281306
O          -0.35328048621928    3.34058025567574    0.79061699611879
H          -0.79223228792052    3.97774811544916    0.22434245954097
O          -0.74854760655673   -3.48707786744581   -2.10880629819872
H           0.40981665836179   -2.20390949409425   -2.37502409931734
H          -0.37619246514405   -4.36805054232051   -2.02718301707885
H          -0.74804744655792   -3.10116472525700   -1.21016602530118
O           1.65767321204568    2.34559596343906   -0.66354541123836
H           1.52918293218227    1.37929044933082   -0.54148672633904
H           0.41331962302788    3.00887298769524    0.26969853691174
H           2.58808270557556    2.50950400473629   -0.50006512006504
O          -1.77784844222969    1.10307526706961    0.95702412823539
H          -0.93318347637435    0.23471687001392    1.74378394447736
H          -1.33357786143011    1.98696721088231    0.95731943369173
H          -1.56867480836137    0.71790828222226    0.07218488464502
N          -0.15731611678638   -0.49463168191388    2.08999853640223
H          -0.27873197075559   -1.33386147157268    1.45810027334124
H          -0.18554644978024   -0.71390251197146    3.07989741795972
H           0.74932463229102   -0.12370219840742    1.77677553096134
