    23
        -45.36401763  Gyration_radius:  2.40156473207 Dipole_moment: 1.948
 S           0.54635597785910   -1.24456129474072   -0.20991668466947
O           0.10632907753790   -0.62331458121654    1.14363279835630
O          -0.16700841177578   -0.35733862259562   -1.25588783550734
O           1.96325661299144   -1.06538631395577   -0.32503694046253
O           0.02170071723157   -2.56463853575837   -0.32330158790207
O           0.95406187333067    2.02315423719560    1.54620186497078
H           0.60927052166530    1.13402950234064    1.70426514198768
O          -2.05366333670861   -1.86205845724140    1.24746797451046
H          -0.81553704207594   -1.06636723419095    1.32939599157495
H          -2.59698216619511   -1.37579387003233    0.56701603646185
H          -1.62347762558282   -2.58379303238678    0.76497456640694
O           3.22289240946536    1.21908761738821    0.10880402913297
H           2.82311216754694    0.33301452413622   -0.02343199407815
H           4.17110361797244    1.08325480143018    0.12182410753404
H           1.90740844880338    1.91636066762528    1.41219564228342
O           0.80185536191657    1.95753134947645   -1.08765369042990
H           1.76202824845075    1.86970959460360   -1.16958719796732
H           0.22732516308098    0.60294829603892   -1.23900042874179
H           0.67199162834100    2.17292914174619   -0.12912097998022
N          -3.10876256177331   -0.52700533930258   -0.81134692838202
H          -3.49178743158770    0.39722083521215   -0.65786038033859
H          -3.72473224137634   -1.01873440975789   -1.44632063444375
H          -2.20674102977093   -0.42024888546339   -1.26731288200305
