    23
        -45.36742386  Gyration_radius:  2.47501874947 Dipole_moment: 5.013
 S          -0.94708826385438    0.08944260006334   -0.81784517275758
O          -0.47265709978714   -1.21754207431671   -0.42714540233897
O          -0.90479729988928    1.04261032033406    0.28404394662262
O          -0.18760707784721    0.61360862111564   -1.97195817641483
O          -2.44311552402437   -0.01066278104901   -1.26458458503086
O           1.30062896237917   -0.87947852771826    3.07268722902543
H           1.20926480728905   -1.75305176501227    3.45722417085196
O          -1.19239166886514    0.00890368525937    2.69524967200562
H          -1.60147018024406    0.72341987189380    3.18651168013454
H          -1.15463779816311    0.31153544471821    1.76133053585496
H           0.38301591141222   -0.53611623901186    2.97675613144522
O           1.97718998810045   -1.05592683378827    0.50882733709380
H           1.96379218984062    0.31942526620604    0.07026334745457
H           1.83348294854303   -1.03066607274578    1.48729553551749
H           1.10219447169160   -1.31870243540775    0.13375344942984
O          -1.68898169010556   -0.67754350591538   -3.71980229113245
H          -0.93057281307159   -0.25346504587936   -3.27100116847655
H          -2.41941373729414   -0.42901849625352   -2.14990693332571
H          -1.97320028397353   -0.07014576442861   -4.40662409016325
N           1.66590616021392    1.33103268297193   -0.30740651457540
H           1.12739283871676    1.13622493848738   -1.19611425216075
H           2.42946689523869    1.98886567222084   -0.42162982253385
H           0.92359824352823    1.66725044804719    0.32007536337042
