    23
        -45.36742372  Gyration_radius:  2.47541716274 Dipole_moment: 5.017
 S           0.49533544945686   -0.61941084865143    0.97145810440365
O           1.66548399919310   -1.23806170702979    1.80551558185914
O           0.53402852279154   -1.25878655248434   -0.33777115498438
O          -0.76048277211137   -0.96653199253570    1.66899941683419
O           0.66905341907902    0.81174425072203    0.88526601048119
O           0.28447424892596    1.86369091876005   -2.89033636827168
H           0.80042987960607    2.66939552921686   -2.95339325293554
O           0.34655774377772   -0.75885385171707    4.05777349205638
H           1.46557043785250   -1.01202404114946    2.73727998082177
H          -0.29256581128434   -0.73724071804229    3.31781682723921
H           0.13714567073701   -1.53924532537026    4.57596973486014
O           2.00948047097193   -0.04282619547643   -2.15695519970118
H           1.53522727529030   -0.45784724607009   -1.40330198453890
H           2.29930960947568   -0.76648447652501   -2.71511775159287
H           0.92917901089612    1.15482491885956   -2.66469177988836
O          -1.17244148214870    1.86310478295677   -0.66758053970085
H          -1.78789578378751    0.55622856820685   -0.67871148896252
H          -0.45999117971914    1.66368025625563   -0.01361740550087
H          -0.70145045033803    1.94900323617137   -1.53326929196518
N          -2.00953431466849   -0.53491885425177   -0.56074558160970
H          -2.93774845590742   -0.81861785324901   -0.85517361697356
H          -1.79569714272710   -0.74276950954477    0.45391517342653
H          -1.25346832675762   -1.03805327863012   -1.04332890511497
