    23
        -45.36742375  Gyration_radius:  2.47539458364 Dipole_moment: 5.016
 S           0.06805915447486    1.04463464916464   -0.69053748061491
O          -0.36672510901675    1.13462602346626    0.68375212233704
O          -0.52382034323879    2.24222589444279   -1.50481801354911
O           1.53919548283687    1.13857541355668   -0.79523574665796
O          -0.40332392470880   -0.17275519153978   -1.33874573068552
O          -1.77594336806003   -2.38362391025541    1.75289556757098
H          -2.39985899970911   -2.17384632193259    2.45010136039321
O           0.45164042432769   -0.96290855169309    2.03968674235731
H           1.21887371550069   -1.31481845711898    0.86728751293250
H           0.12197074979579   -0.08893497408838    1.71947566426401
H          -0.34445611715346   -1.55013057298229    2.02979437339542
O           1.51087989452850    3.77944077151179   -0.77069133314359
H           0.00447810281553    3.02225477424204   -1.23691894012034
H           1.76953261849058    2.84545495336671   -0.63958440003406
H           2.04690406915526    4.11154771761960   -1.49442324425359
O          -2.68597869203695   -1.13678298835428   -0.43012661107065
H          -1.87770626840385   -0.67511857131174   -0.74437273721338
H          -3.05442381341483   -1.57411299291495   -1.19969009869101
H          -2.13696127388218   -1.96137741422347    0.94025730971896
N           1.65161476628764   -1.37262540753404   -0.16370512654713
H           1.91929893171363   -0.37651107575503   -0.39721037024262
H           0.86091663358065   -1.53379786038039   -0.80123029369500
H           2.40583336582849   -2.04141590717046   -0.27596053653664
