    23
        -45.36401770  Gyration_radius:  2.40201144904 Dipole_moment: 1.946
 S          -0.00784690410344    1.35188923793809   -0.24197844737677
O          -0.47485220360092    1.98684548931490    0.95457901842083
O           0.32887024882099    2.17474711477261   -1.35558239758983
O           1.22157346779931    0.47596812990239    0.09184376991531
O          -1.08072257588491    0.31279431539172   -0.66724740391491
O          -1.83156864736110   -1.48086912365878    1.35868334616547
H          -1.82293552246779   -0.97353130148613    0.53590044403720
O          -1.41109783036717    0.70274492851464    3.06833703046957
H          -1.79909886361544    1.31833010045357    3.69144915206083
H          -1.11670471907912    1.24061968524252    2.30249342686480
H          -2.09064284472820   -0.85570115986492    2.05157557900137
O           0.64251006963813   -0.93046211572261    2.09494214658343
H           0.33264239973536   -0.32757297060323    2.78555174663901
H          -0.18616069441274   -1.38677939272958    1.80016367028554
H           1.03293426354439   -0.09960841312232    0.93511744099741
O          -0.28831273021571    0.14936805339153   -3.02455991006097
H           0.54536529107411   -0.38778273225089   -2.91919596991911
H          -0.87333568256848    0.14217036228630   -1.67144580155445
H          -0.00792458751268    1.07442621254899   -2.95880845340909
N           1.99969326059457   -1.05038114086299   -2.34656517350863
H           2.05219849401712   -0.55732937565993   -1.45939923907729
H           2.83652605840295   -0.83628771085851   -2.87407953201217
H           1.99889021243616   -2.04359819250830   -2.15177441278658
