    23
        -45.36742380  Gyration_radius:  2.47512206008 Dipole_moment: 5.015
 S          -1.15229123404785    0.24043424547368    0.43322746563744
O          -0.47051242249920   -0.94840875826880    0.92942846072869
O          -1.91556432854091   -0.08530991957529   -0.78939968846987
O          -2.19510633182357    0.64624069568559    1.52660772772994
O          -0.24064460332959    1.33740438551649    0.20628844092977
O           3.43229944923648   -0.07620231326770    0.34758531970376
H           3.95609302357076    0.68165624473143    0.61336082908510
O          -3.72660180529442    1.77894163225348   -0.32078835161685
H          -2.81348735497407    1.25883527292296    1.07751872958711
H          -3.11384768166556    1.16124324710942   -0.76742021825421
H          -4.60425505019407    1.39897249347842   -0.40297156180489
O           1.70993662057259   -0.50185115472616    2.34744130003643
H           0.85825563350464   -0.57098979349229    1.86255398867569
H           1.73431502071849   -1.25246504233350    2.94342385889109
H           2.82994439410138   -0.25912418715725    1.10440042497687
O           1.64009525581318    0.62556250810329   -1.48484476346229
H           2.38902395651901    0.38281416309450   -0.88582704913902
H           0.88316247770608   -0.58737120304958   -1.68495415197973
H           0.99103854425081    1.08677061257126   -0.90063047774407
N           0.14642904783427   -1.42748810132398   -1.60662189767116
H           0.23613692814011   -1.80309404359598   -0.65339259066516
H           0.22262472552950   -2.13435271959741   -2.33002912646479
H          -0.79704423625173   -0.95221828541897   -1.56495668874390
