    23
        -45.36401753  Gyration_radius:  2.40230981041 Dipole_moment: 1.936
 S          -0.16584693535006   -1.34667123863672   -0.20197129502772
O           0.22543128645712   -1.61635403188380   -1.55366515739702
O           1.00329809773177   -0.65869789603442    0.53979360672968
O          -1.25889084708330   -0.24440195121225   -0.24408054610010
O          -0.61508967042635   -2.43509145658553    0.60066284742703
O          -0.54876252291112    2.04522389358991   -1.70681059456588
H          -1.06561097303550    1.38203637246218   -1.22989006921948
O           1.82957874139260    1.22097700278589   -0.91311686126743
H           2.02252911795194    0.84492008658708   -1.78347915721468
H           1.00439860815040    1.74729766087351   -1.06800668476404
H           1.39390271198038    0.10659684973885   -0.04261982495978
O          -2.13649326297757   -0.73429633533019    2.03665008512366
H          -1.88430354446526   -1.65944125510663    1.89826048604396
H          -1.42063286377564   -0.34865569825361    2.61414412638427
H          -1.73269261263441   -0.33237963170228    0.67688485083564
O           0.83601263644949    0.23586319074811   -3.34034460577460
H           0.91907607068573   -0.15193869839924   -4.21238891072228
H           0.57994666498074   -0.49689508921271   -2.74045342224953
H          -0.31683759769428    1.63939339454359   -2.55513577658051
N           0.07249555852809    0.14311727416468    3.25494091228889
H           0.67098771995190   -0.15063674311410    2.48783075294959
H           0.38510045790921   -0.32795182532777    4.09445901245688
H           0.20240312816044    1.13798613546926    3.38833622534626
