    23
        -45.36742379  Gyration_radius:  2.47530386087 Dipole_moment: 5.015
 S           0.41219047074355    0.18433599984661    1.16987657092618
O          -0.60727823526901   -0.61061977438168    1.88593892860602
O          -0.18904540911022    1.28395888337676    0.45214648727130
O           1.39640390571334    0.74225775001288    2.25046998374299
O           1.19819699543444   -0.67888510737294    0.29720646426762
O           0.14046427915288    0.55452185875069   -3.40294029648682
H           0.13382387576236    1.42808172977754   -3.79817762451613
O          -0.60564423137386    1.00990275463553    3.97134223170022
H          -0.88434938031804    0.38591750819678    3.27173036425229
H          -0.51642678926092    0.49452690398848    4.77622811472905
H           0.82420401311689    1.08674265373917    2.96689772017494
O          -1.70389278311869    0.38259334660600   -1.49728213520397
H          -1.24561712676006    0.89666730725079   -0.78963188247515
H          -1.10701523638734    0.45070440719526   -2.28327001926559
H          -1.48398847219166   -0.93393639655820   -0.94479997675556
O           2.27982860535214    0.50291277820470   -1.80020240430011
H           0.95337897036614    0.52199910000455   -2.84872848874085
H           1.89177713679720    0.16137367241480   -0.96480320335249
H           3.07024166999173   -0.01728461350720   -1.95465706404110
N          -1.11166394230964   -1.81024225738595   -0.35566420790555
H          -1.59345851569989   -2.68449035299534   -0.53550170321946
H          -1.15489142837178   -1.49250200560373    0.65204366201329
H          -0.09723837232297   -1.85853614616469   -0.51822150154866
