    23
        -45.36401744  Gyration_radius:  2.40233019546 Dipole_moment: 1.940
 S           0.00243817308274    0.70869784915234   -1.17406576782547
O           0.35674651711644    0.41824780383875   -2.52339292386935
O           1.22359988316462    0.38877499439791   -0.28163546082735
O          -0.47647806903825    2.02354059803207   -0.86625769417559
O          -1.06980617485880   -0.30369936744744   -0.68734334197601
O          -1.85247463228357    0.03544800192878    1.98837231473758
H          -1.83160376730421   -0.24975218369865    1.06498655674058
O          -0.24988242299038   -2.17622730898981   -2.11321355599098
H           0.03443014933865   -1.51380027330008   -2.76056155891554
H           0.57954090060105   -2.44720430933357   -1.63030232165060
H          -0.85129760953638   -1.16892642863760   -1.22043849056954
O           0.61424240019942    0.96732483754935    2.08897115779127
H           1.02252261689317    0.64352073504829    0.70453552812463
H           0.30112088386112    1.88277645186529    2.08773176051470
H          -0.21398501487756    0.44112627326979    2.22788760113405
O          -1.45084854493116    2.76127468222615    1.47922075601619
H          -2.11712641879698    0.96710889893114    1.97110511882125
H          -1.84967475265451    3.63033819092815    1.42057572026859
H          -1.14133567816151    2.54248219921580    0.57439074158207
N           2.02261020540150   -2.44596863057555   -0.73583471842971
H           2.06665728419128   -1.45375761965547   -0.52015562767283
H           2.86760651396716   -2.69634747113457   -1.23352602213074
H           2.01299755759512   -2.95497789363369    0.13895023832306
