    23
        -45.36742370  Gyration_radius:  2.47532083268 Dipole_moment: 5.016
 S           1.20394424654552   -0.04131903443226   -0.34763095611275
O           0.33287087451932   -1.14105380437742   -0.69069923958107
O           0.51867767978653    1.24369188176776   -0.40808079490507
O           1.80858446874320   -0.23166290185789    0.98732995269837
O           2.38163842065077    0.03174958012458   -1.37484798632937
O          -3.37154650244820    0.19595133629143   -0.70849046604292
H          -3.82178549082601   -0.39296708963216   -1.31662029179686
O          -1.46259401631892    1.39613274049048   -2.14467740635755
H          -0.67534336609640    1.26802915988165   -1.57106323677924
H          -2.69926762552826    0.66984317954099   -1.24938913666734
H          -1.46046288250647    2.32295464810734   -2.39011920815335
O          -1.76051473927949   -1.17788393031517    0.89762604097164
H          -2.44960263679777   -0.71708109818760    0.35774092637196
H          -1.02686798399503   -1.36247037995709    0.26297681468584
H          -1.09546948180508   -0.14510497599478    1.65725772524626
O           3.76013746406556   -1.73871608801438    0.04166604304898
H           2.97938884298743   -0.70597173416797   -1.13441747333746
H           4.60109565181794   -1.41880493119913    0.37607650102297
H           3.06872748131483   -1.35643566708007    0.61815661536721
N          -0.40028053981847    0.65813056195873    2.01157752679131
H           0.56616510480229    0.24410583828815    1.89917288475410
H          -0.59336208413655    1.01322244945558    2.94183091471664
H          -0.40413287590300    1.38566024930439    1.28462423046026
