    23
        -45.36742365  Gyration_radius:  2.47538945733 Dipole_moment: 5.018
 S          -0.85402624191478    0.91172227416213    0.10745215315178
O          -1.32682475757821    2.39076849410415    0.29827026516081
O          -0.06661368870408    0.57103348310924    1.28568362205257
O          -2.07101041896168    0.07507411395696    0.05089246472994
O          -0.08680480359986    0.80447687599424   -1.11138380628417
O           3.25643705664091   -1.10672261334223   -0.28621392160684
H           3.86803222924305   -0.79051000751838   -0.95349973836573
O          -3.45637288381459    1.93221405794573   -1.21706502496036
H          -2.05712951015767    2.51251246245629   -0.34297475723503
H          -3.10862258631276    1.07154179423981   -0.90934974672752
H          -4.29948467511802    2.05884785623805   -0.77595550721003
O           2.52142311534681    1.05559935378836    1.10381237976436
H           2.76954338613063    1.23581128359487    2.01221940262483
H           3.02240060354145   -0.31680672530204    0.25257842467839
H           1.54313103732082    0.96559000053933    1.10480370378227
O           0.88430654777656   -1.62433884259631   -1.36707914804890
H           0.07235310179317   -1.97756786646488   -0.22550551681986
H           0.55681929136468   -0.69916845443089   -1.47600970186040
H           1.80702967960852   -1.52513181204564   -1.02445412794715
N          -0.59075999684646   -1.95835150813204    0.67636772304266
H          -0.12022504480208   -1.36167021837951    1.36936952064166
H          -0.85212380660939   -2.86985128145879    1.03659499077385
H          -1.41147762426715   -1.35507271118709    0.39144634710501
