    23
        -45.36742372  Gyration_radius:  2.47533615909 Dipole_moment: 5.017
 S           1.10694400178411   -0.58916590021736   -0.00985850029258
O           2.19479627146705   -1.54472928471981   -0.60232788541750
O          -0.09283790162723   -1.39368191682737    0.18405254233096
O           1.61574893006244   -0.11406163522208    1.29381823645194
O           0.88525938627692    0.51102550045637   -0.91880418095726
O          -2.99662539523911    0.88025433389136   -1.46835045727955
H          -3.06403104001341    1.28587032025600   -2.33452023051455
O          -1.07059680208256    2.03483485720733   -0.04694661418628
H          -1.03411728432012    1.24407631130477    1.16158625727390
H          -0.28597479627899    1.62975273860622   -0.48889417061716
H          -1.84729811880653    1.70604977297782   -0.56393485340161
O          -1.76193964378369   -1.45872386237151   -1.85942384056900
H          -2.17438875577522   -2.31973569055459   -1.77123580423927
H          -2.58298988875064    0.00008692195277   -1.62072548596530
H          -1.05750980081316   -1.42635162131420   -1.17541090596233
O           4.11750125889570   -0.04867828868655    0.44952502212146
H           3.04586349177992   -1.07729179038302   -0.47366313236088
H           3.28224539439784    0.15369625141868    0.91619797097421
H           4.68004702193103   -0.50158466730198    1.08186982810034
N          -0.82906043558781    0.46036106314059    1.93439408944825
H           0.22449842255219    0.36864374934510    1.94854489785385
H          -1.11377087204900   -0.43680887210091    1.51995120346034
H          -1.24176344460700    0.63616169891044    2.84415602290772
