    23
        -45.36401757  Gyration_radius:  2.4023181373 Dipole_moment: 1.958
 S           0.38507795060703   -1.31692143232358    0.03658741596839
O           0.68639001356941   -1.69990110117903   -1.31088886425762
O           1.25382113194737   -0.07466763081405    0.37337418795427
O          -1.05883680610533   -0.76796872295267    0.10021401910949
O           0.52868891919101   -2.29402796512725    1.06386558484862
O           1.05853600851783    2.01844376500010   -1.48851585256375
H           1.36740318921500    1.45716104557220   -0.76468138471099
O          -1.32457134325297    0.91479847190129   -1.74993167028639
H          -0.57748039372536    1.54192083300278   -1.57558453070047
H          -1.06206903788155    0.47649292721695   -2.57175747735367
H          -1.21846452736716   -0.08941084032410   -0.66934481212481
O           1.03189682432812   -0.33120867946471    2.84254141683909
H           0.09494737051676   -0.02486664627338    2.99386520945847
H           0.97001077738399   -1.28797783184582    2.70313147496262
H           1.25813625899022   -0.05217035643526    1.41248968537041
O           0.74932007968354   -0.03973925084303   -3.36832348650528
H           1.10664828965346   -0.47623047582582   -4.14262591210980
H           1.27775395742550    1.54341964809217   -2.30361707909111
H           0.78477765670143   -0.70005887199528   -2.64359313095416
N          -1.56863859779469    0.27867750023186    2.84271095143676
H          -1.71388783124733   -0.13089611563964    1.92396851392067
H          -1.85058415801328    1.24977720224085    2.79920498070568
H          -2.17887574251887   -0.19464547238155    3.49691077026250
