    23
        -45.36401741  Gyration_radius:  2.40231158329 Dipole_moment: 1.931
 S           1.21091754141237   -0.12836576214194    0.63236102722330
O           0.55181705596659   -1.15217953721949   -0.32041031627328
O           0.93474412129995   -0.49902831601494    1.98853241659215
O           2.57168256313500    0.02532970805870    0.23825954395489
O           0.43241644616960    1.18315619267749    0.33978916402350
O          -2.30448300753791    1.07566378007874    0.96079256543334
H          -1.42451145987592    1.40739916033822    0.73721965163940
O          -1.83062849370808   -1.46441209098569    0.42371167909449
H          -0.42733799115191   -1.33276384513780   -0.02739784421016
H          -1.80882456168637   -1.69115718748156    1.36399020915268
H          -2.17692612230921   -0.53588670834188    0.41893990798309
O          -1.48105898065902   -0.58482074717849    3.06230027306942
H          -1.42382723831207   -0.70230958930350    4.01135585519322
H          -0.55648332670281   -0.53118486039768    2.73882734991625
H          -2.25620962072723    0.80421321914305    1.88939362478568
O           1.81648937311089    1.81087946682439   -1.63585178372091
H           0.91749027686617    1.57736283316801   -0.49048614612614
H           2.56489084570521    1.36625883771221   -1.21062693540735
H           1.48462924534619    1.17021817361126   -2.32436575852637
N           0.89726187177564   -0.20657046818827   -3.12555983211079
H           1.52682311074744   -0.65916572766728   -3.77609230213668
H          -0.00511215505732   -0.11705682412089   -3.57516351656079
H           0.78624055524040   -0.81557969777930   -2.31951884345054
