    23
        -45.36742366  Gyration_radius:  2.47528850567 Dipole_moment: 5.016
 S          -0.86687888816013   -0.40865546098897   -0.80848664539789
O          -1.25806378529629   -0.09221811274777    0.54532041546390
O           0.46189303648465   -1.00428790309978   -0.87275379155049
O          -1.85789191708379   -1.46154661234820   -1.40558651132511
O          -0.93098452310024    0.78423518024361   -1.67843061461291
O           1.93373894842112   -0.36129226743341    2.83488129921143
H           1.57454021596032   -0.56412398130667    3.70043646715144
O           1.19363636082369   -2.38593344339484    1.25317377852758
H           1.78773514142321   -3.04311394707198    0.88660530876320
H           1.69903181855724   -1.12917893399608    2.26550097372789
H           0.81553118360870   -1.90619301913829    0.48366236933962
O           0.49185493827030    1.52909571424796    1.64751597652016
H           1.06435038482836    0.90948717713526    2.16427549968380
H           1.09538654809489    1.62874760407475    0.33927800489134
H          -0.29128607829360    0.98731657605926    1.38611745587008
O          -3.51165558222097    0.47671508155518   -2.14588284595943
H          -2.67560381684531   -0.96103594905145   -1.60621534484681
H          -2.62876423409470    0.86897858569010   -1.99343238657956
H          -3.67283386489900    0.52776912172222   -3.09077380415314
N           1.38022098923423    1.48139051010339   -0.73370425953470
H           1.67367795106270    0.49973260615500   -0.82305170110870
H           2.06102545599261    2.14247041179908   -1.09169009873266
H           0.46133969737412    1.48164104176105   -1.25675954528644
