    23
        -45.36401766  Gyration_radius:  2.4018062701 Dipole_moment: 1.954
 S          -0.04292580074623    0.15548230897681    1.36411115310490
O          -0.84374384003307    0.91665508217127    2.26408620327182
O          -0.98931907385018   -0.70652807326543    0.49741752016307
O           0.62315149364284    1.10307407546345    0.32987781240297
O           0.98728961820994   -0.67711167069611    1.91056945723364
O           2.18513018404558   -0.20178806392893   -1.60412859362847
H           1.79658129110044    0.48424687250589   -1.04481427123552
O          -1.23924655958907    2.75876146410740    0.33620868623995
H          -0.06277144803631    1.87795715656070    0.22894769879572
H          -1.93738545746148    2.27675840077387   -0.18823850779884
H          -1.40244563182812    2.52072730153940    1.26112050580583
O           0.43057158242075   -2.09325920181652   -1.04722722612687
H           0.97988228805986   -1.40594755747817   -1.50277320170735
H           1.07236027691737   -2.56403397297334   -0.49669361859930
H          -0.43825446196959   -1.31853641215161   -0.13513955636297
O           2.77553726416721   -1.99276337280715    0.47388378968736
H           2.17058784805941   -1.49686783780056    1.06609249227436
H           3.44943845663582   -2.37146394214696    1.03973408342338
H           2.78477866323686   -0.70175848896870   -1.03110714381842
N          -2.94743772505151    1.08656630338463   -0.85492687643002
H          -2.89790620792022    0.96171871433458   -1.85811617365513
H          -3.92432126539998    1.11789209220355   -0.59201212056165
H          -2.52955150470246    0.27021881202131   -0.41687213229126
