    23
        -45.36401739  Gyration_radius:  2.40225294132 Dipole_moment: 1.929
 S           0.41431758951254    1.22247589509526    0.46508031610916
O           0.45674524104714    2.10478454906043   -0.66302885653341
O           0.77528190159548    1.74157082873817    1.74213951040714
O          -1.01563310766072    0.62053990900926    0.53258492902584
O           1.30481275754973   -0.00949080555922    0.18261465995267
O          -1.90503465631236   -0.54604265516594   -1.86253281583943
H          -1.89261591064807   -0.16742270483627   -0.97323668300554
O           0.70256698293035   -0.87897516674119   -2.09961687866527
H          -0.27480625104643   -1.02192612371937   -2.02075432925365
H           0.77179891579168   -0.13597644440146   -2.71547056106323
H           1.10795168323553   -0.38105054128843   -0.76627936211486
O          -0.41947735260153    1.49358291271116   -3.08263323277126
H          -0.11761811544828    1.79858019612030   -2.20046199436238
H          -0.44022286244770    2.27253885030542   -3.63989110532240
H          -1.78285081577056    0.19957994989319   -2.46860261337615
O          -0.84062272477917   -0.06600193146134    2.92231024838785
H          -1.09494712878284    0.28363741477311    1.51254594022798
H          -0.24200054270609   -0.86115013919280    2.85868607360921
H          -0.25024769468866    0.68940967837762    3.06150304017622
N           0.97835219459507   -1.95513362391465    2.41609514943823
H           1.38264528063141   -1.42849067567152    1.64660836340521
H           0.67404425959180   -2.85040465455129    2.05511050028721
H           1.70756037632313   -2.12463470764875    3.09722969145867
