    23
        -45.36742380  Gyration_radius:  2.475150685 Dipole_moment: 5.015
 S          -1.04152801056776    0.61919751883076    0.32390129427211
O          -1.58802016019008    0.84678376063535   -1.03001677264877
O           0.24123679956627    1.26245890536993    0.48719128119705
O          -2.06483044325616    1.23102482274353    1.33688190403526
O          -0.98081890017254   -0.80956134972454    0.60562285858278
O           2.98967226214551   -1.54439537862622    0.76429638061349
H           3.68928576750332   -1.12679957166371    1.26977161564049
O           0.84593599495607   -1.54709144376634    2.36164232205700
H           0.15707544669249   -1.17622068291999    1.76736238053226
H           0.45728132292793   -2.32865184429476    2.75828216604288
H           2.21479559665763   -1.58528931358410    1.37007110932074
O           2.03380946425477    0.12999743487156   -1.06466591854969
H           1.49609835627586    0.71370839349959   -0.47694130612842
H           2.48822028435337   -0.49667040362903   -0.44867973866627
H           0.93896275773241   -0.60972179200504   -1.64647477406139
O          -2.62153185065738    3.18559058081331   -0.36924439745783
H          -2.29529532641595    2.10973317160152    0.97065918427959
H          -2.20480198644104    2.45400436134414   -0.86686978231669
H          -3.53763161780605    3.22132476615736   -0.65366065142634
N          -0.05759121745965   -1.07046330093721   -1.86838092342186
H          -0.32362060332492   -1.60259044315980   -1.02940371923872
H          -0.09841055598327   -1.61429165332339   -2.72359027303419
H          -0.73829339077618   -0.26207653826224   -1.83775424963261
