    23
        -45.36742380  Gyration_radius:  2.47515087964 Dipole_moment: 5.015
 S          -0.90911455152731   -0.58219456517702   -0.63854625651403
O          -0.45380014234175   -1.18756850819723    0.60669086137530
O          -2.37106114643035   -1.08776900518376   -0.87248346599349
O          -0.90226607024576    0.86079700835799   -0.57810910474258
O          -0.09687243857915   -1.07623553267548   -1.76980274378455
O           1.11827405726531    1.94058706208527    2.62509439406380
H           0.75093025247972    2.79834264555535    2.84567676456153
O          -0.91851930967896    0.21696891206346    2.79207758773639
H          -0.84184139924909   -0.26190486927231    1.93765251502338
H          -1.01198862888026   -0.45978224917011    3.46474516461542
H           0.37746721781677    1.30107794666201    2.73136082706335
O          -2.07798522082559   -0.79585527457700   -3.49355719412788
H          -2.55974646138696   -0.90197702620822   -1.81547589564630
H          -1.18879691098990   -0.82908352653712   -3.08766641502704
H          -2.17615226231864   -1.60471800522987   -4.00101792110403
O           1.50519201223892    1.73812747566424    0.00370721753879
H           0.56978105171524    1.60327047917044   -0.28279171294972
H           1.44944823507849    1.89188378322524    0.97935442250253
H           1.94920183426557    0.37392518665543   -0.15807454813167
N           2.00334422264557   -0.73728345157605   -0.28819053301570
H           1.36924963028307   -0.94120399016652   -1.10923284836681
H           1.47482706445003   -1.14625487697913    0.49361089892906
H           2.94042897416472   -1.11314959856826   -0.38502199398086
