    23
        -45.35981435  Gyration_radius:  2.32613361252 Dipole_moment: 5.670
 S           1.34105452860995    1.67512877306705   -0.07742478618246
O           1.33945723308976    1.52593697773486    1.47158820412929
O          -0.17607705790956    1.83590254005492   -0.38934949415841
O           2.02015859930403    2.84277453093044   -0.49229690125071
O           1.78567372593037    0.41894612209063   -0.63545334660927
O          -0.43061861078328   -1.90958534540332    1.12658628410006
H          -0.87026945224449   -2.74905499349482    1.26545056786016
O          -1.35178261530962    0.56533001443194    1.50697272420645
H          -1.10535576762538   -0.38343994803564    1.41969773591950
H          -0.87469418951294    0.90589300752502    2.26885090061853
H          -0.70019898486070    1.34227730327834    0.31726475733477
O           2.03212483671034   -0.91293883596575    1.68105466154801
H           1.18894655345299   -1.40611330103928    1.63340889239768
H           2.35841267522649   -0.87278541949140    0.77054003144973
H           1.65719328545596    0.58420450530522    1.67905457550722
O           0.03618942552449   -1.51079593109904   -1.35899513629656
H          -0.70758307147484   -0.99822588655111   -1.75514111669776
H           0.76377996671944   -0.86893770320940   -1.27273020276989
H          -0.27469453209467   -1.82740183376857    0.12724892194319
N          -1.86676213751962    0.20931139674207   -2.26455080882842
H          -1.97281813516054    0.32283319149963   -3.26469405988256
H          -1.40040507344384    1.03531766288091   -1.90243058131698
H          -2.79173121208596    0.17542315251816   -1.85465180301830
