    23
        -45.36514206  Gyration_radius:  2.28494803949 Dipole_moment: 7.083
 S          -1.80421271164796   -0.68895326150583   -0.25784492710079
O          -1.77399430610720    0.77862944724221    0.02277925798201
O          -1.76275542033206   -1.38411322410890    1.14675258141071
O          -2.96632484331746   -1.10105794896038   -0.96391841731799
O          -0.54401984131633   -1.04127032345860   -0.92786598105162
O           2.14137999042414   -0.00539734962165    1.12781559806786
H           2.97403613830516   -0.08115687285731    1.59562117848426
O          -0.34525914502966    0.52523832603290    2.23269048279586
H          -1.23762047010572   -0.76623242527467    1.71341711359150
H           0.57472885725846    0.46588549356298    1.92164801981954
H          -0.84733835118440    0.97382124607135    1.53056508421314
O           1.57060159148618    0.41584504390278   -1.52058092538555
H           0.47534652695829    1.45419305220769   -1.72399286960587
H           1.95327423125465    0.43419689683735   -0.62411979815162
H           0.90972097633411   -0.30904139579026   -1.47057636333590
O           0.97517121234203   -2.33771432984503    0.76596407779003
H           0.39355034154996   -1.99056950800194    0.04980961770821
H           1.79540164402302   -0.93192443739786    1.02115886383635
H           0.37378628174719   -2.65993479322114    1.44152909660474
N          -0.47381284694050    1.97707221664346   -1.78320613707431
H          -1.09943805355924    1.48550771649843   -1.00550204357257
H          -0.90041380337411    1.81573625110572   -2.69002392132576
H          -0.38180799876806    2.97124016993866   -1.60211956838070
