    23
        -45.36514202  Gyration_radius:  2.28512496836 Dipole_moment: 7.088
 S           0.37726050313848    1.79251097663800   -0.66554988317246
O           0.82228452222239    2.79170275756386   -1.57239362552195
O           1.21320922959698    0.58333111511019   -0.65493049333814
O           0.40213878921937    2.35518560288523    0.79751279582394
O          -1.03489037490025    1.36583716037822   -0.90454350489026
O          -0.06798693629904   -1.64312118519117    1.77654066593427
H          -0.04285406993776   -2.24941352112682    2.51792354353506
O          -1.47866931317900    0.73877582621434    1.62525115755554
H          -1.67211064627452    0.86306671076461    0.68001861544406
H          -1.11925969888239   -0.16047071752100    1.71906395644146
H          -0.28500866690016    1.82907444761911    1.27655049270602
O           1.92773463481798    0.07371207436132    1.81217758037333
H           0.73151169070164   -1.05822270896489    1.86657622800048
H           1.81482291752032    0.29895240141252    0.85919276535595
H           1.81126902659716    0.90386268697858    2.28035183346996
O           0.57727313509007   -1.96488496081416   -0.86908532166922
H           1.07125263713455   -1.11681725716402   -0.82861587173684
H           0.25278270652365   -2.08054555815230    0.04284709372656
H          -0.46362054206042   -1.36084934640253   -1.80172830978290
N          -1.08244131759907   -0.68415268774516   -2.38241096090064
H          -2.02193783556103   -1.04084708996652   -2.52292019781671
H          -0.63672167194360   -0.48709318565323   -3.27281208102377
H          -1.09603871902546    0.25040643877621   -1.77901646851443
