    23
        -45.36514204  Gyration_radius:  2.28495497932 Dipole_moment: 7.086
 S          -1.17547889798700    1.07450994236044   -1.12354819384825
O           0.09751529436631    0.69306455419659   -1.80721920663540
O          -0.83428500667136    2.35805464480494   -0.29052316038551
O          -2.23526037720922    1.35568962489888   -2.02721909429356
O          -1.48978849663124    0.02203854404231   -0.14645423454818
O           1.27681969961641   -0.34867510123603    2.02631996021365
H           1.73619607259949   -0.43363762073808    2.86276485605637
O          -1.00866787918759    0.93658121093941    2.25943443140409
H          -1.34485375928269    0.59466684347704    1.39811697093369
H           0.42404470686626    0.12450176278166    2.22253137652188
H          -1.00949240226987    1.89217745991043    2.16600928965608
O           1.64296811591990    1.63164908489990    0.12133369947406
H           1.66853265911973    0.91744501858461    0.78158912816475
H           1.41252639692239    1.21678573889337   -0.72784809093463
H           0.11594217128700    2.24530084372900   -0.03958157711135
O          -0.16853053349669   -2.14993326319038    0.54875468448649
H           0.49365676083734   -1.70736826413120    1.11095653907196
H          -0.86440628142984   -1.46602125270760    0.43607732524367
H           0.17735681674707   -2.09948667893401   -0.93318181139355
N           0.26683045852097   -1.82306658798665   -1.97890376213776
H          -0.51986842159717   -2.19403832901343   -2.50217465333004
H           1.14446543668792   -2.12717367143114   -2.38744423556963
H           0.19377745627349   -0.71306450415281   -1.96979022103910
