    23
        -45.36514199  Gyration_radius:  2.28508880679 Dipole_moment: 7.088
 S          -1.32658060430668    1.26073281875626   -0.67054125249422
O          -0.19800315633715    2.28018695870712   -1.05139745036668
O          -1.03667060982719    0.82097199510389    0.70183814721303
O          -2.59930847912424    1.87397892219955   -0.82162232318760
O          -1.12596248079801    0.08790204853496   -1.57476643147632
O           2.22915071056601   -0.53512409982351    0.77771499557511
H           3.12033523655197   -0.67126898982646    1.10202087346803
O           1.26689213341561    1.82426904535414    1.43961319083676
H           0.33621871536810    1.54571236593916    1.27249918633115
H           1.94990723463767    0.36464846607193    1.09699558581447
H           1.41649247792496    2.56409103290889    0.84615598862903
O          -0.19159250942987   -1.49271322134879    1.63828545235630
H           0.74393596876615   -1.38486059869862    1.38617262460123
H          -0.55400571656912   -0.58310340727015    1.56023940527277
H          -1.06650507978100   -1.98295703222661    0.49268502731591
O           1.49439431188042    0.40453221999195   -1.72497374878018
H           1.83797940745142   -0.02890015012742   -0.92451050399835
H           0.62219744904798    0.01130168912760   -1.90115065548504
H           0.55825946798320    1.71385966061413   -1.34422885909079
N          -1.72539618162347   -2.05006922956472   -0.36713307427927
H          -1.50981386514602   -1.12280953217198   -0.94264916682636
H          -2.69340665746365   -2.02371011855024   -0.06283136064945
H          -1.54851779318800   -2.87667086370017   -0.92841566078018
