    23
        -45.36514204  Gyration_radius:  2.28493189586 Dipole_moment: 7.085
 S           0.49592686392676   -0.02703355196412    1.88429355993104
O           1.34210315111692   -0.13813717473371    3.02023988464927
O          -0.01156007275083   -1.34476198913771    1.39503712820614
O          -0.78222341950353    0.80175724911116    2.25457430828768
O           1.11722736482517    0.66297740993405    0.74449662113677
O          -1.26927596021473    0.89562540941771   -1.85582088789623
H          -1.78039673669137    1.31570717175665   -2.54877989793223
O           1.31579446319738   -0.01594620975622   -1.79414288206884
H           0.40157031891314    0.21007722201849   -2.04617426098181
H           1.42892765415478    0.42996628927929   -0.92629867414162
H           1.43507479764027   -1.38994982162523   -1.14897818758682
O          -0.46136686796750    2.60554048192460   -0.02448118663593
H           0.23297306327111    1.99201999713333    0.31196839303162
H          -0.99356140514600    1.62074264343745   -1.23314604736510
H          -1.03169216978689    2.77444266036094    0.72922072118958
O          -2.25499664126529   -0.34038329445987    0.42130658111709
H          -1.59597631158136   -1.01794572696227    0.65125040128758
H          -1.47589062930927    0.48168557031474    1.62613356594839
H          -2.00771148886599    0.00140610269644   -0.45544038685382
N           1.48207018847090   -2.21717771846263   -0.44790705341669
H           1.14062631089846   -3.08513313059110   -0.84754469813535
H           0.84010418253179   -1.88731887842715    0.39878567497884
H           2.43225334413728   -2.32816069126433   -0.10859267674990
