    23
        -45.35981436  Gyration_radius:  2.32611459608 Dipole_moment: 5.670
 S           1.82151303350460    1.05834959998765   -0.41499605288977
O           1.53184754240753    1.74171701029517    0.95277904972400
O           1.89748913341821   -0.36553129809917   -0.18293658214712
O           0.51408071245133    1.35270468393545   -1.20795867004922
O           2.90919736637102    1.66272092561445   -1.08461661694702
O          -1.21568659939389   -0.90026385944894    1.67688702119967
H          -1.92809337789706   -1.42807828231726    2.03909606248168
O          -1.29703747914659    1.54042323086462    0.60233660449745
H          -1.37389115454517    0.65798976182446    1.03122625032714
H          -0.85607905240290    2.11673454495692    1.23278416475603
H          -0.24752240341984    1.42442593827313   -0.55030434569188
O           1.32249257001676   -0.31331940095735    2.43764032957303
H           0.38047432909962   -0.56587204969186    2.36511860903597
H           1.77904461644342   -0.82381285132602    1.75351193166851
H           1.47834046149830    1.00335545490278    1.64763744143877
O          -0.26606535901858   -1.96427376688617   -0.44940252643863
H          -0.72373266207857   -1.58803502034889   -1.23799000758492
H           0.61266019810143   -1.54396769050412   -0.44639839083387
H          -0.88971467170961   -1.38581439964795    0.84759851303070
N          -1.31612461804079   -0.60749154410035   -2.56038389994896
H          -0.66061244062525    0.16446835613701   -2.48760447519869
H          -2.24990148780636   -0.22488626842930   -2.48036526004241
H          -1.22267866723094   -1.01154307503793   -3.48365913996304
