    23
        -45.36514204  Gyration_radius:  2.28491720632 Dipole_moment: 7.085
 S           0.46413317036924    0.16554650521995    1.88533445595362
O           1.29386482543536    0.34313006223227    3.02496003607803
O          -1.00976879963916    0.56955216901355    2.23466078527061
O           0.85347975886749    0.98912109397460    0.73145943523729
O           0.38967108621157   -1.25420330632494    1.42483045093016
O          -1.46691735095556    0.42380976791614   -1.87760264437209
H          -2.07628406070412    0.65222365540930   -2.58073620493028
O          -2.04531985556870   -1.00745761802744    0.42494555825186
H          -1.21218399281002   -1.44509680324727    0.67117447459877
H          -1.56635488944600    0.03899120310943    1.61233371147086
H          -1.90739113127368   -0.62460407795979   -0.45882953209132
O          -1.23832824882021    2.33691924295254   -0.08370329861482
H          -0.39216653843837    1.97323844444729    0.26768348561436
H          -1.43238003792687    1.21132177191673   -1.27083145425723
H          -1.83940037073994    2.33837094386162    0.66500657995168
O           1.27251741320688    0.35170842312671   -1.79107565934102
H           0.33522502837167    0.28079759086314   -2.04966518031477
H           1.23593252765053    0.82873899888661   -0.93322857900632
H           1.80209565692087   -0.90561297545046   -1.11506388795169
N           2.09466311261921   -1.66375221431226   -0.39557474881388
H           1.37522661948117   -1.52949619890871    0.44236142693414
H           3.03008613500427   -1.47054008925303   -0.05210832903943
H           2.03959993218359   -2.60270660944678   -0.77633088155882
