    23
        -45.36514204  Gyration_radius:  2.28490824515 Dipole_moment: 7.085
 S          -1.04513250439486    0.41146328401252   -1.59234492735862
O          -0.58303351428717    1.28392875381662   -0.50309954872432
O           0.01942587713780   -0.60765198035932   -1.83989977199506
O          -2.26672414123313   -0.38992281826464   -1.02376405906352
O          -1.43455813829288    1.11268249052466   -2.76509993929044
O           0.17965235299644   -0.73566740331992    2.29847122593251
H           0.17553087049553   -1.00730393858754    3.21722610433779
O          -1.93039112025722    0.70593824588764    1.66649588462632
H          -0.63672727789470   -0.18266671428444    2.16685994297016
H          -1.50288314251284    1.06397204228456    0.85360560373831
H          -2.71844038513713    0.25403380659061    1.35564733765886
O           1.59640080331353    1.20394897235048    0.97659583622167
H           0.76179503398330    1.48692938441600    0.54290557067373
H           1.31115302799939    0.47943956528170    1.56325262815072
H           2.16428463624745    0.71151195183665   -0.34760685190537
O          -0.76026362840865   -2.18706519000646    0.13177850114542
H          -1.85993611585411   -1.14568007858749   -0.53185588576217
H          -0.23086617116528   -1.88724153441881   -0.62723997485792
H          -0.34807973598012   -1.80517631552573    0.92610128060587
N           2.29539839562667    0.38862075630950   -1.37547703075943
H           2.45616510765242    1.19386176518756   -1.97217524625357
H           1.31281876835500   -0.05966931812766   -1.64281367237188
H           3.04441101161043   -0.28828572701662   -1.47756299771915
