    23
        -45.36514203  Gyration_radius:  2.28490928718 Dipole_moment: 7.086
 S          -0.72763183496799    0.93050770118032   -1.55000913504918
O          -0.22322240098595    1.45503872430179   -0.27266088365344
O          -2.15465444761998    0.35299688511781   -1.25369398466949
O          -0.80833518203233    1.90540442760130   -2.58044043884338
O           0.11125409472398   -0.24998727879924   -1.91859238633850
O          -0.26732513049613   -1.16213783043089    2.10569974726023
H          -0.44273972366119   -1.58734159095698    2.94615190079410
O          -1.91904155241337    0.82980498064028    1.62201954536489
H          -0.92128011109417   -0.41655692713437    2.02780448742029
H          -1.32770232382574    1.21742357289013    0.93514670834774
H          -2.74260380336987    0.64237888753482    1.16540436618255
O           1.68871212452710    0.59202786990406    1.32264085807366
H           0.99524616832769    1.13915817751548    0.89308394399768
H           1.18287881552631   -0.13796546184179    1.72472923477136
H           2.29302230444804    0.22734235258818   -0.02638919382804
O          -1.22881019615554   -1.92982014087105   -0.37839779354141
H          -1.98558918243500   -0.55411418222645   -0.89713203177878
H          -0.55802501367758   -1.63169929531704   -1.01669493634545
H          -0.84366097912170   -1.80778005338944    0.50673550165971
N           2.47537334085871    0.07448080094085   -1.08537737202715
H           1.45901660281957   -0.07080521769239   -1.51396706301749
H           3.06533189045683   -0.73116707919195   -1.26577452174730
H           2.87978654017066    0.91281068763546   -1.49028655303237
