    23
        -45.35897757  Gyration_radius:  2.43197733157 Dipole_moment: 3.204
 S          -0.54475723614238    0.74289735884068   -0.22095272605637
O           0.65113764363606    0.84815801609764    0.64326673386145
O          -1.75333415174322    0.65840423123523    0.60878202733255
O          -0.63915361851627    2.04752193204575   -1.03383871069587
O          -0.43880732392857   -0.38305232037927   -1.12699669788621
O          -0.59241587737947   -2.07081809936114    2.72123382041502
H          -1.14925476159271   -2.57122347409061    3.32064158784362
O          -0.55179311073543    0.46365959202699    2.72991094881688
H          -0.52168165224820   -0.56087028932556    2.86217957891654
H           0.20304413008656    0.66669066855418    2.02262267345919
H          -1.30116396139164    0.60825343636796    2.01151638686948
O           1.86882915926800    2.27214865167656   -1.38465464542148
H           1.97328277029306    1.87712643166112   -0.50943915413634
H           1.99932716680015    1.52421789903813   -2.02714501004149
H           0.31844776756528    2.28711085252276   -1.27342180007083
O          -1.74776091932170   -2.13481202328356    0.36889586736520
H          -2.51990792999992   -1.56860624956414    0.46447473025210
H          -1.19098393143186   -1.65524679151747   -0.27981443194962
H          -0.96796041618071   -2.19918115283963    1.80616066880013
N           1.82208142564933    0.03091064101765   -2.83857698989486
H           1.55696405847723    0.07203707348761   -3.81463494649309
H           1.00046211604837   -0.26466631122325   -2.30913546020625
H           2.52539865291641   -0.69066007296000   -2.74107445071505
