    23
        -45.35897769  Gyration_radius:  2.43200526864 Dipole_moment: 3.204
 S          -0.12971622793130    0.93351355385482   -0.09346922723839
O           0.42185455624620    2.23451401568279   -0.70576408789937
O           0.94456622266378    0.34787351759580    0.73766439832272
O          -1.27126124954502    1.30102560450478    0.75408067935916
O          -0.52220374112477    0.02934165889712   -1.15569753935986
O          -1.58890723293876   -1.92556831193167    2.41107490050050
H          -2.33698949424813   -2.19060100740266    2.94949462478785
O          -0.37984015386146    0.27071680075843    2.78469507945017
H          -0.83271318219046   -0.65809376004782    2.76642644176148
H           0.41019167399232    0.19936807820254    2.09099084424372
H          -0.94840583034327    0.84713650547753    2.11858095433734
O           2.76046634228812    1.31910187519147   -1.10116844845575
H           2.63593152095687    0.80001628944807   -0.29617653733923
H           2.55477168071340    0.69652848001268   -1.84902775631881
H           1.39010595985531    2.03471316771953   -0.93896275154961
O          -2.55027941434544   -1.10988661524218    0.11265931741298
H          -2.97567451533760   -0.27056816356299    0.31394865240442
H          -1.81005490576519   -0.85575505498721   -0.47750635454818
H          -1.94534517716925   -1.73298686723496    1.49962304993975
N           1.73784024271174   -0.41110661914703   -2.86185834435877
H           0.85295732148138   -0.36471661073046   -2.35435152611410
H           2.02292210857668   -1.38198739346271   -2.89268640323598
H           1.55978348531898   -0.11257913371942   -3.81256996614467
