    23
        -45.35897546  Gyration_radius:  2.43166528468 Dipole_moment: 3.200
 S          -0.64900922253592    0.42727963667429    0.54824493486261
O          -0.91249705043378    1.59549712276537    1.51632690726121
O           0.48898636240866   -0.34667504294401    1.09422576826077
O          -1.85587500397647   -0.40683695818634    0.53081534169003
O          -0.34031569294115    0.95152599959174   -0.76695810319098
O          -0.35074193807102   -3.22912886612329   -1.21602805099213
H          -0.84029063483788   -3.96206358552160   -1.59406141399626
O           1.54251009655186    2.03858152313741    2.00606877581483
H           1.80574394856917    2.42506594558504    1.12809581992592
H           0.00538930842447    1.91183890542675    1.81531004121038
H           1.67960719114987    1.08670139568783    1.91692578417052
O          -0.70239451895854   -2.46890060123082    1.17687983518894
H           0.03112130596331   -1.70960273788815    1.26744605698343
H          -1.44641721159145   -1.76357322899354    0.98227733803152
H          -0.51798939272920   -2.90484877173606    0.25853360186502
O          -1.41002948946281   -1.02737225950440   -2.16665132535748
H          -2.26257505813608   -0.95987057166155   -1.72561820358285
H          -0.91357467648393   -0.25441033944787   -1.82485993365393
H          -0.67394470337972   -2.40280986724627   -1.67151955167255
N           1.88540803295911    2.74229187124006   -0.54820284915949
H           1.64927067063345    3.68068097624103   -0.84538589325030
H           1.10119262011363    2.13578177342272   -0.79299498485174
H           2.68642506808391    2.44084768135457   -1.08886987545534
