    23
        -45.35981435  Gyration_radius:  2.32612552064 Dipole_moment: 5.670
 S          -0.07601726791148    1.58881918782975   -1.44235601198066
O           0.35108469509695    1.90655591563022   -0.09933199047716
O           0.48607110088430    0.18442401647606   -1.81188943354965
O          -1.60859985851503    1.32278157175572   -1.39664475576832
O           0.26850998392816    2.50310443058511   -2.46317267563228
O          -1.11646775408593   -0.90187640860982    1.74391686603457
H          -1.21505894195517   -1.48703440750744    2.49568760960582
O          -2.02589518865873    1.57292899907767    1.10036923221646
H          -1.86076598442090    0.67909245879839    1.46126029292897
H          -1.18010279204603    2.03867004377133    1.16995706962174
H          -1.90277820431303    1.44872301042736   -0.43307436276573
O           1.27328009981302    0.00296387360557    1.58411634836089
H          -0.15360236327120   -0.58160862044900    1.75193069201588
H           1.80585176005524   -0.57802405570546    0.99108611914473
H           1.09493315344889    0.80206843816897    1.05644531914850
O          -1.24158818037032   -1.46045615922471   -0.86200541210440
H          -1.23388220638307   -1.35942959841223    0.11689311941603
H          -2.05701098705526   -1.05893566833387   -1.17491787396429
H          -0.14440850826693   -0.51557037506092   -1.45112391513992
N           2.54577632434026   -1.43449405524653   -0.34321128458388
H           2.14576143359627   -0.90300561597757   -1.11029089927600
H           2.29135936351980   -2.40502092083857   -0.47766567193631
H           3.55355033257191   -1.36467605076989   -0.40597837131009
