    23
        -45.35897668  Gyration_radius:  2.43180859043 Dipole_moment: 3.204
 S          -0.49441125536511   -0.28394609742959    0.75856956647976
O          -0.59162332465522   -1.32687271055948    1.88749911243594
O          -1.53635097290603    0.72086940224573    1.00214245232388
O           0.84180656956390    0.34461073699953    0.85469520424907
O          -0.67267895827602   -0.94051642615436   -0.52091567501720
O          -0.30998124988820    3.15078055693358   -1.41815593888345
H          -0.79888771131304    3.92038866329116   -1.71553704746211
O           0.00094377962597    2.62463998115977    1.04202881451323
H          -0.84634459242098    2.02159558300750    1.15447838379641
H           0.63119189179108    1.77776166536162    0.99962635322651
H          -0.05461757109537    2.96132954996151    0.06663645930119
O           1.82153223136823   -2.10078063977053    1.68369378265350
H           1.75328411905017   -2.58460581072496    0.81732565403163
H           2.03954212504433   -1.18932886190223    1.44996601274920
H           0.32736020285151   -1.75654230626793    1.93891279080989
O          -1.87059302895438    1.07215036865232   -1.75920987704234
H          -2.54810662919455    1.16575557135593   -1.08236591054946
H          -0.85592902903588    2.35233014949869   -1.66159771456923
H          -1.39154863107408    0.25949452309769   -1.49290542137092
N           1.27449659852287   -3.02882568786321   -0.76127444680093
H           0.53438567169777   -2.32892877787555   -0.83280190873302
H           0.84440020084852   -3.93902519607182   -0.86706554872955
H           1.90212954377649   -2.89233421725180   -1.54374509732154
