    23
        -45.35897644  Gyration_radius:  2.43172851243 Dipole_moment: 3.203
 S          -0.69241153717111   -0.60256378198654    0.24280779360934
O          -0.57084699980055    0.68035325022112    0.90556942335731
O          -1.14482477031304   -1.66480452790572    1.26188477158551
O          -1.69736450433146   -0.56760500133542   -0.82632715457100
O           0.60891739228117   -1.04574921411565   -0.30531170061589
O           0.26714439189659    1.44331273052404   -3.14270254940667
H          -0.07790687458676    1.85678976138178   -3.93626350257192
O          -1.27718516470032    2.18430976751477   -1.15806944550419
H          -0.24524124818660    1.82250831569510   -2.37556065901928
H          -2.10043868210639    1.70742764543484   -1.30214941081039
H          -0.93554449231292    1.80395946952138   -0.32176272139895
O          -0.10798726925956   -1.01169950124535   -2.63409640350752
H           0.45693506463250   -1.13330050136065   -1.74882872198487
H          -0.99128237213248   -0.89796921410769   -2.08640990629529
H           0.11401992223198   -0.05642785428598   -2.95949360523543
O           1.18516008148467   -2.09652810927948    2.18299236176418
H           1.51291809673933   -1.93020045044976    1.28980297160156
H           1.31553441763907   -1.24124850328976    2.67377635918879
H          -0.29943290496314   -1.95334440842109    1.74551746065186
N           1.23910855369982    0.40858850606301    3.11010875632403
H           0.58781205490677    0.66934976218450    2.36811434773032
H           2.05644397193764    0.99938723127577    3.02216822840754
H           0.79647286286934    0.62545462817398    3.99423331650246
