    23
        -45.35897719  Gyration_radius:  2.43193587411 Dipole_moment: 3.204
 S          -0.57563685484654    0.73078140076278   -0.18299249050803
O          -0.29070880418977    1.77038947331300    0.81380015681866
O          -1.02981738766008   -0.50350337993225    0.49456016051744
O          -1.74552486701067    1.23542732461352   -1.04808921933437
O           0.57237192835338    0.47163609404738   -1.02851221326256
O           1.89816197138411   -0.26701364640400    2.89241567250781
H           2.45772944320493    0.07338323402490    3.59297820097431
O          -0.56815688199824    0.30076449189808    2.74968890459487
H          -0.87455323559822   -0.28790745212001    1.92938498699096
H           0.40590806605336    0.00940747430447    2.93490747808546
H          -0.47192060385929    1.14721817942986    2.14064378464667
O           2.43644911579050    1.12497063964274    0.73720182015424
H           2.05633021846864    1.99204895365520    0.90930709782925
H           2.19081997619222    0.17856459940150    2.04939588365606
H           1.90202214145334    0.78500547726112   -0.01088212854458
O          -2.50566577981274   -1.08190875009188   -1.76631855316849
H          -1.75295771536448   -1.30618374830691   -2.37652802236173
H          -2.22557300367827   -1.38668561885450   -0.89362351488070
H          -2.17521263026214    0.40064240407671   -1.43573771125883
N          -0.19229766963038   -1.39162457949284   -3.06696924237005
H          -0.08379721482762   -1.00415419074567   -3.99581273733524
H           0.33716383684191   -2.25365147929765   -3.02951474574243
H           0.23486594077114   -0.73760688066203   -2.40930356806369
