    23
        -45.35897720  Gyration_radius:  2.43192674655 Dipole_moment: 3.205
 S          -0.37680000014963    0.86353033094510    0.10584075225274
O           0.26064214904513    1.47667366277022    1.27771778193962
O          -1.44541723515288    1.84964637191328   -0.40143515204667
O           0.58129504622607    0.60565304122602   -0.95034783043094
O          -1.07715823323565   -0.37652660634687    0.50653728964458
O           2.01345192856191   -1.51781003901105    2.38374591814529
H           2.70374574681657   -1.53165429138297    3.04938241384119
O          -0.21852701309292   -0.38658546533761    2.78870704493965
H          -0.74187311036219   -0.62668975509793    1.90455144641393
H           0.65694054073999   -0.93303836287392    2.73428448568858
H           0.04202287209611    0.55466488268025    2.41074685346180
O           2.70295723230149    0.27734083874760    0.60210088068962
H           2.58179975277681    1.12026404234828    1.05013460895833
H           2.33593931395448   -0.92628099089168    1.64824421755458
H           2.03266132063782    0.29952668481147   -0.11276238133359
O          -2.85086347150954    0.07629496766685   -1.56061168872003
H          -2.24204482094525   -0.12717944481803   -2.32032214777616
H          -2.58345749823796   -0.52339643367511   -0.85222980428160
H          -2.11302654156230    1.28365712852330   -0.91691082695343
N          -0.82787406800986   -0.36246027758567   -3.25008402436124
H          -0.18598652102422   -0.04209247529258   -2.52339518441995
H          -0.70531558528390    0.24183652349399   -4.05286958428225
H          -0.54311183488371   -1.29537435220050   -3.52102505842702
