    23
        -45.35897386  Gyration_radius:  2.43137511251 Dipole_moment: 3.193
 S          -0.50445802069558    0.59028805716583   -0.55288190188153
O          -0.79699517568679   -0.82887042037441   -0.53719158959533
O           0.90002922850418    0.84843622516116   -0.15829195427009
O          -0.68244615648773    1.13414791705254   -1.98244690023311
O          -1.41257402043637    1.34268545604400    0.31857797618611
O           0.02111696867309    0.17691688927802    3.46160774439082
H          -0.38066757101018    0.29614402560999    4.32421771871473
O           0.34515394341106    2.10629041676802    1.84856112259267
H           0.30044272002023    1.39364363694345    2.59486439329528
H           0.86034621040959    1.62903167482669    1.04989859759667
H          -0.56405182961106    2.01538181962681    1.35075413957832
O          -1.78777215020779   -0.92780259541072    1.91832146059364
H          -2.42509385152249   -0.22588116749745    1.75388977976084
H          -1.40011514413321   -1.09667005024034    1.03408589170434
H          -0.62393728041042   -0.35214860140969    2.91518822285209
O           1.61428844469995    0.40233104380220   -2.79029592519591
H           1.46152521755513   -0.58037499668531   -2.81615972264828
H           0.18107069287059    0.90850654704005   -2.46774504098221
H           1.93297566281430    0.58743860002184   -1.89764105381628
N           0.88488313836758   -2.14436262086199   -2.44707354618522
H           0.34959981028953   -2.61372639852694   -3.16664187869608
H           0.22850439164117   -1.83193310540092   -1.72991352664046
H           1.49817475077763   -2.82947234337397   -2.02368398672269
