    23
        -45.35897376  Gyration_radius:  2.43135929341 Dipole_moment: 3.192
 S           0.19628593733838   -0.84393421549260   -0.39770053895103
O          -0.77245027508435    0.11896748113156   -0.97171696916300
O           0.88892037846539   -1.55011810642254   -1.57781047536932
O           1.19054860638021   -0.16402542051266    0.40790067175966
O          -0.51699799603309   -1.86984441849130    0.36962681383271
O          -2.45898786479607    0.45389824681827    2.40015029146338
H          -2.96270689579242    0.21122719759572    3.17933166008298
O           1.01282721533814    0.52467124797456   -3.04171792894414
H           1.70701626759573    1.02728879690657   -2.53652777455030
H           1.02710110792090   -0.83020984682449   -2.28118522002418
H           0.17058993061313    0.79056693219009   -2.65105947346981
O          -0.02623987242645   -0.46196946020618    2.74278411190943
H          -0.11185955503113   -1.41531551925070    2.64423452226841
H           0.52870849262648   -0.20178037569389    1.97794029122451
H          -1.50913073669218    0.21351061679245    2.58609355923664
O          -2.70677983221831   -0.77896477607950    0.19828394921129
H          -2.74576788901966   -0.24285250582530    1.08025713851623
H          -2.06418297950095   -0.21350140163488   -0.43335099399084
H          -1.96432022190497   -1.48926393970802    0.36118330022729
N           2.66257430627408    1.63986601123432   -1.26119649782899
H           2.23353185400766    1.05867827076382   -0.53945152817143
H           2.57148670607466    2.60552523245885   -0.97137128344617
H           3.64983332583890    1.41757995230041   -1.28469762575993
