    23
        -45.35897545  Gyration_radius:  2.43172319496 Dipole_moment: 3.199
 S          -0.69268924667818    0.65068583256554    0.02926545881315
O           0.18502623868412    0.45532895101767   -1.14697509399261
O          -2.08630706267356    1.03624595545345   -0.50045420518567
O          -0.79395755406463   -0.56444206305927    0.81230350208934
O          -0.20405256970606    1.77601748540731    0.83390100803196
O           3.23627699859137    0.60175607544453    1.09330766410397
H           3.89362340462728    0.96328766687818    1.69075490371559
O           1.13449014892480   -0.00153707455342    2.53962010764232
H           2.48943348706873    0.26163151896517    1.66010700825183
H           0.75463298227522    0.84925255041538    2.77993202110153
H           0.44973925228496   -0.40403866708619    1.96525743010511
O           1.86282065461342    2.07521743536408   -0.44616433782808
H           2.53754487389315    1.52456907245043    0.10965009294679
H           1.30989519365693    1.35415543119562   -0.99114015979176
H           1.06302339009760    2.23520073139577    0.20477188015197
O          -2.01190551753451   -0.54003400624852   -2.49369159349381
H          -1.06289012320789   -0.36478014821949   -2.53213800962560
H          -2.09994237973749   -1.40384392786188   -2.00833328362195
H          -2.22768476338798    0.46707604560137   -1.32995470445045
N          -1.97810813217494   -2.61074648045631   -0.80606540710475
H          -2.84694971433690   -2.95088085176481   -0.41355772636818
H          -1.54369921608685   -2.00250769984903   -0.11029971168685
H          -1.36832036549726   -3.40761383327151   -0.94009684400583
