    23
        -45.35897549  Gyration_radius:  2.43168285689 Dipole_moment: 3.200
 S           0.14730200673566   -0.02080468372495    0.93921354187726
O           0.65924979395273   -1.07977747563870    0.09279612945546
O           1.17859317682344    0.97733344850452    1.24379472429171
O          -1.02321795851312    0.63943845325447    0.31789771948327
O          -0.32324404513597   -0.61784289328148    2.27844230455602
O           1.26955224364256    2.46740310688208   -2.08082883256560
H           1.94395269251424    3.07564667679530   -2.38901551427309
O          -2.59762225126218   -1.35014527503750    1.41008631515267
H          -2.57680439195006   -0.56756155582958    0.84443372292397
H          -2.30403804524654   -2.10208223573375    0.82881389153375
H          -1.25575818308636   -0.97966522503324    2.10087436112442
O           2.51042272843878    0.35656418557720   -1.14393018234064
H           1.73626531485691    1.61964309658050   -1.83953509013613
H           2.91238139664532    0.65753179420321   -0.32311243371036
H           1.84931965626181   -0.30326855474428   -0.84670303221921
O           0.03672404740139    2.82162015918047    0.10598020194766
H           0.48208191543989    2.80338377817508   -0.82606818982260
H          -0.65849878248083    2.02229116177685    0.08876113515024
H           0.68784783669020    2.27707985522485    0.71308814933441
N          -1.37552779558785   -3.07126447460048   -0.22740179498328
H          -0.55881712035697   -2.45834581938493   -0.21904396048301
H          -1.65773732932225   -3.19278165457923   -1.19197337695487
H          -1.08242688680500   -3.97439587896071    0.12343021158631
