    23
        -45.35981436  Gyration_radius:  2.3261135532 Dipole_moment: 5.670
 S           0.47450346132674    2.00957111855849    0.58885753271969
O           0.95377272597592    1.42963166586735   -0.77452367102891
O           1.42932033599188    1.30393639332025    1.59485354825343
O           0.66068754624672    3.41027739653464    0.58155971148700
O          -0.86178113351075    1.52219766535936    0.84162924824697
O          -0.26563415269705   -2.09456487755431    0.80219943989132
H          -0.52623800022821   -3.01433329848144    0.74389286405116
O          -0.22461338745196   -0.22870714477331    2.77258019053752
H           0.85676541520447    0.69086830685806    2.16690327809660
H          -0.94200804033340    0.32611793946455    2.43403614184524
H          -0.23762262486637   -1.03579998482950    2.22041215001926
O           1.89812141803821   -0.88364768616358   -0.18301498821315
H           1.32643003429982    0.50606441050596   -0.61394813171503
H           2.44121415652945   -0.66202637148786    0.57854710093141
H           1.14973731262882   -1.42793755489004    0.15189010297591
O          -1.87827560533389   -0.59252129811826   -0.50102725770631
H          -1.53627272695692   -0.45891501588426   -1.41648036042100
H          -0.95055071255390   -1.56644060102752    0.27144296324371
H          -1.70117799541063    0.24869046219308   -0.04297293403175
N          -0.67458316316283    0.01421499305548   -2.86389862912463
H          -0.05864071515210   -0.66785412620582   -3.28830186858177
H          -0.09448893501605    0.74700134583881   -2.46713916224777
H          -1.23866523356692    0.42417625185753   -3.59749724922990
