    23
        -45.35897540  Gyration_radius:  2.43158645206 Dipole_moment: 3.200
 S          -0.23934169325858   -0.91870987333396    0.05855748740812
O           0.69859610395414   -1.55815714785686    0.98799321261687
O          -1.04238758521568    0.09170194400129    0.71737274086760
O           0.50145831680410   -0.34653700631379   -1.08863468845019
O          -1.15900818085106   -2.02190670763216   -0.49685000740397
O           2.94344556894981    1.29629623898487    1.29656882964008
H           3.63527534797212    1.37869423014959    1.95559493006161
O          -1.75525945449876   -0.76629666545889   -2.62550611210713
H          -1.50591316529514   -1.66512044278501   -1.38249106478213
H          -2.33267211040310   -0.05991883703450   -2.22910616997496
H          -0.85963553706390   -0.40550683988415   -2.60327732096091
O           2.71277778779770   -0.76639066420138   -0.15940851853089
H           2.06647506375076   -1.29616206331779    0.46541731304301
H           1.91225834213657   -0.48801914811569   -0.79555550299528
H           2.93641898070251    0.09051459591685    0.37269485336119
O           0.72363825853703    0.74923969165975    2.57985034265800
H          -0.01516187786223    0.68848541308150    1.93856048256136
H           0.83586129244343   -0.15807107219586    2.88006393310229
H           2.08277986503586    1.21079211732927    1.79316988177554
N          -2.98015174023826    1.08804846713341   -1.14287813617561
H          -2.87679286839034    2.07866033899336   -1.32390657992996
H          -2.35425986002273    0.84766180781358   -0.37266718273022
H          -3.92840083364307    0.93070160358649   -0.82556271367298
