    23
        -45.35897541  Gyration_radius:  2.43158827196 Dipole_moment: 3.200
 S          -0.84294900235540    0.10119447593976   -0.42884499903266
O           0.34476003565010   -0.47105455113982   -1.10269744542150
O          -1.63361749949808    0.88932561256645   -1.48950677804777
O          -1.71193338467089   -0.97910091816743    0.05106545812562
O          -0.45436894333642    0.99389934204646    0.64443853706166
O           0.89147099882546   -2.80903173831245    1.82758258659059
H           0.73167330008985   -3.52495283849527    2.44536453682998
O           0.42416629073421    1.80125649532365   -2.67152035374716
H          -0.93276699619016    1.34268224338550   -2.06853705961321
H           0.72622543076967    2.44549607962144   -1.97637883831339
H           0.85798724386863    0.96689631596746   -2.45140826929989
O          -0.57725677822437   -0.78194193972643    2.60691223053671
H          -0.41569264709440   -0.01775115716460    2.01472962704841
H          -1.47931536276752   -1.04259738658124    2.39647215635676
H           0.42934480273910   -2.00494402455339    2.19439523683719
O          -0.13869997200825   -2.77737376325706   -0.48876777356670
H          -1.00783654375199   -2.25701417235093   -0.23848489298613
H           0.29674723078709   -1.90420973135819   -0.90219376514653
H           0.34666906698650   -2.91181718385904    0.41333042707253
N           1.03610786236972    3.17535054442414   -0.46368373241791
H           0.53654460492030    2.47092838462312    0.08127208978014
H           0.59153245954039    4.06777116618778   -0.28886316644286
H           1.98120780277947    3.22698873499845   -0.10467583214156
