    23
        -45.35897639  Gyration_radius:  2.43174458863 Dipole_moment: 3.203
 S          -0.21067337671382   -0.85819470058061    0.34723389631370
O          -1.25570525598017   -0.00333874261367   -0.17910551348308
O           0.22821986688082   -1.84994772084490   -0.64166454277864
O           0.94843433713462   -0.06201556212923    0.80872559216627
O          -0.74732306880833   -1.63263357299013    1.56534982715339
O           2.00273414164021    0.49816027855311   -2.78799617152441
H           2.32056279470969    0.29931337636340   -3.67072436075502
O          -0.35968895080456    0.25827613993775    3.21998221744579
H           0.41751924149104    0.48909907299903    2.69505799919169
H          -1.07595755383821    0.87705837043260    2.91429811527944
H          -0.66906041763205   -0.99170884711051    2.34953568558132
O          -0.53935891257030   -0.13968857140128   -2.72621970529936
H          -0.90753572254663    0.07940925952893   -1.84461503724290
H           1.01363761827864    0.37059314344784   -2.80364097361085
H          -0.54686631836865   -1.10180740526207   -2.74019368248576
O           2.51646421512882   -0.99623555948647   -0.80571686238003
H           2.08551859349107   -0.44869640481169   -0.01049654326427
H           1.67056151363021   -1.60608749467669   -0.87938567405339
H           2.44973695250950   -0.36914679771274   -1.62424643210663
N          -2.17964131159794    1.71739602242574    1.91736895806134
H          -1.95979454126628    1.18881110138240    1.07178899761699
H          -2.03822677923291    2.69834970244489    1.71110839306299
H          -3.16355705559534    1.58303493207759    2.11355580719094
