    23
        -45.35897561  Gyration_radius:  2.43167111526 Dipole_moment: 3.200
 S           0.91747278610816    0.01577035190353   -0.24933428758193
O           1.16095900758892    1.28402722986504   -0.94576043523749
O           0.52892060515709    0.22774561257955    1.13052654562489
O          -0.10578487070284   -0.76871766123663   -0.97692489485558
O           2.22823670182249   -0.79124572667804   -0.29412487101680
O          -2.33584677635237    2.28880999214173   -1.15523751688244
H          -2.63923297022996    3.16430294418698   -1.40267709055208
O           1.10701065792800   -3.05541613906550   -0.01206297576795
H           0.36892913848313   -2.69645247430223   -0.52118319115763
H           1.95227247851406   -1.76252029054205   -0.18234318604529
H           0.83361001909363   -2.97242832288027    0.94074382291176
O          -0.66204703364268    0.99948222637366   -2.55651200416329
H           0.20035687600615    1.34234800949327   -2.07878567097506
H          -0.61605823880602    0.07787409531060   -2.03631991791202
H          -1.42953155046695    1.52057250705730   -2.10173557382734
O          -0.60580210646041    2.59756708950970    0.79024822715452
H          -0.29556721067690    1.71788685120579    1.09139842725860
H           0.17009692869902    2.97625524870432    0.36542995129373
H          -1.77441964890957    2.39981332843046   -0.33840133245205
N           0.31652322057926   -2.31654438495433    2.43052959552574
H           0.34020909370154   -1.34543078373974    2.11566576800952
H           0.95603093944289   -2.39965339734376    3.21075799444338
H          -0.61633805694508   -2.50404631584120    2.77610261613018
