    23
        -45.35897764  Gyration_radius:  2.43201303012 Dipole_moment: 3.206
 S          -0.52708978457444    0.70237897943603   -0.35529675736242
O          -1.49963404585664    1.11454379206188   -1.47604434614808
O          -0.44805947210852    1.82555277119784    0.58737982635084
O          -1.10765870360727   -0.47916086611940    0.31911346815412
O           0.76735477182462    0.39455072180950   -0.92940174084464
O           1.27991543425181    0.00585003095914    3.22576176144081
H           1.68745754769785    0.41274782637222    3.99265453822635
O          -1.10768101069394    0.51750618342550    2.54544586793576
H          -1.24413101636806   -0.14309811301364    1.73564182806178
H          -0.19045855004312    0.25941968692095    2.94563456363915
H          -0.89068829118294    1.31140081873123    1.89615253038175
O           2.23944217259738    1.22325970010157    1.11162782058827
H           1.86583567005822    0.81359595293384    0.30329168957692
H           1.83265392528853    2.09509705422041    1.13044259613575
H           1.73568030054767    0.38491623727434    2.42359320504821
O          -2.10119058103677   -1.26654237834420   -2.13358757053817
H          -1.84340476349491    0.24367062212847   -1.86990011668370
H          -1.24156994986371   -1.52763688122192   -2.56026381165420
H          -2.00126260877393   -1.49310637225094   -1.19996601153539
N           0.42599870402208   -1.64308118417869   -2.91543989005135
H           0.71858506799798   -1.33183427235012   -3.83315025111421
H           0.93713469191645   -2.49006688995927   -2.70052388784717
H           0.71277049166516   -0.92996342988822   -2.24316533190950
