    23
        -45.35897556  Gyration_radius:  2.43162274872 Dipole_moment: 3.201
 S           0.90472714953909   -0.28492836384120   -0.06702852277541
O          -0.18324188467579   -0.84021039498523   -0.90363169366669
O           1.16807591257736   -1.17949597325425    1.06569545871870
O           2.17709369761084   -0.25547028993119   -0.93395066256866
O           0.59031755284194    1.05939887944235    0.37319902016762
O          -2.29001856012509   -1.40433770294796    2.19350449050248
H          -2.56822356130529   -1.77273550541451    3.03412269053831
O           0.97677048044127    0.42025231504413   -3.07071763782660
H           0.75191457496202    1.35860118608637   -2.82896644142172
H           1.86639675025882    0.01715949565733   -1.86194261645237
H           0.23132154844242   -0.10885117443733   -2.75897651743313
O          -0.73818164424829   -2.65296669468404    0.62500295702874
H          -0.70634400964247   -1.99755160117279   -0.20668018413356
H           0.15896155331866   -2.26912144959153    0.99531417797893
H          -1.46137212258505   -2.25487865810606    1.24624404951357
O          -0.46003110294190    0.39938299938912    2.71427490602916
H          -1.68708010921486   -0.63760730977681    2.40160882005511
H           0.31024990808070   -0.10945688940102    2.98564968406088
H          -0.17266649149833    0.82123439550732    1.87748258516468
N           0.33320332008333    2.74738659384359   -1.92737109925691
H          -0.58929878191412    3.15522436080495   -2.01381735493721
H           1.00485221868059    3.50467340913802   -1.92043064457526
H           0.38257362108954    2.28429836247316   -1.01858545443832
