    23
        -45.35897836  Gyration_radius:  2.4321334763 Dipole_moment: 3.207
 S          -0.04304081130755    0.93361777083996    0.14836911146588
O          -0.41333940194316    0.37752528558913   -1.13750344168591
O           0.90211343241089    0.04855135213855    0.86231176691005
O           0.66368933416410    2.28566234287965   -0.06256182410547
O          -1.22152518897710    1.18553577793438    0.98831623468887
O          -1.94922391222819   -2.30714108014770    1.71021164900612
H          -2.76142021263157   -2.62375061903614    2.10995360560119
O          -0.60244149546920   -0.41599599811256    2.72733818976519
H          -1.05881026511111    0.36776295881831    2.19759939708974
H          -1.12661830695369   -1.25752574373130    2.43545255927132
H           0.23834171750264   -0.38940271402431    2.09591051361361
O           2.94598163384263    1.26952068751049   -0.53447486843740
H           2.70779978106763    0.57669267564843    0.09504445345773
H           2.75740852633795    0.88443584741629   -1.43182022308588
H           1.62933888335292    2.05561810178630   -0.27763098275054
O          -2.63286342389159   -0.83532394360392   -0.34878844791015
H          -3.00521861820150   -0.03716013366439    0.03881108577741
H          -1.82468054160610   -0.51477027458946   -0.80151193611439
H          -2.20598985489440   -1.85155956230644    0.86083566172575
N           1.94547728353785    0.16230855017918   -2.75122147644118
H           2.15211890356133   -0.79209983246601   -3.01814386888223
H           1.87695586685285    0.71069434057233   -3.59928661665575
H           1.02594665228025    0.16680421036656   -2.30721053233644
