    23
        -45.35897836  Gyration_radius:  2.43215985132 Dipole_moment: 3.207
 S          -0.00444781054458    0.85419382670279    0.40713465848719
O           0.80515058598907    2.13709226110414    0.67306922146050
O           0.78487363722317   -0.28172215430018    0.92968239390238
O          -1.26354677651753    0.97203046208767    1.15451732733560
O          -0.23956465413489    0.71900256255377   -1.01633899014849
O          -2.29084202194708   -2.49678161930766    0.75247811829247
H          -3.16562005627876   -2.83354699177569    0.95509408726244
O          -0.97272977407549   -1.10423846161676    2.41026640416185
H          -1.30823260487188   -0.16353533408362    2.08514708591716
H          -1.50560186416091   -1.77611770276180    1.83343147297665
H          -0.05766822728933   -0.98226030738993    1.90615869312796
O           3.06247964204960    1.08051477600919    0.17082019106522
H           2.70316308097946    0.26505503153159    0.54359569000241
H           2.96769539885035    0.98244021189182   -0.81430650542466
H           1.77449400522703    1.88530316218222    0.50386659570541
O          -2.61217036324251   -0.44861024911225   -0.85222199534527
H          -2.98183343425255    0.24072184063954   -0.29172909298101
H          -1.73434018498203   -0.09272421705116   -1.10448427594336
H          -2.40768069292311   -1.79907211692999    0.04928186499114
N           2.28953975201191    0.74068567924551   -2.36455607745007
H           1.32254840905739    0.70834425757275   -2.03808602775281
H           2.46988408285096   -0.11570158997524   -2.87340647508590
H           2.36444988139619    1.50892669208648   -3.01941434464520
