    23
        -45.35897641  Gyration_radius:  2.43172852224 Dipole_moment: 3.203
 S          -0.02671200677030   -0.94456284064606    0.09264127961569
O           1.05775804330443   -0.10795613225979    0.65333591476296
O          -1.00875165790038   -1.25384564358932    1.13863150034537
O          -0.64525784226725   -0.30200950170169   -1.04947808684663
O           0.60609782272278   -2.27702081234862   -0.34971273275734
O          -1.51692859289396    2.18541813200873    2.22577988609908
H          -2.22334599020364    2.47715728472998    2.80511067278988
O          -2.63482656283960    0.85528648669928    0.26264850291804
H          -1.95162556713873    1.78797063969735    1.42085597797300
H          -1.94303998317083    0.56653652218996   -0.36889722942126
H          -2.92889889529071    0.03247532695971    0.66566671364883
O           2.75202078405252   -1.22676814974486   -1.21899863005908
H           2.38581056821637   -0.78098010369059   -2.02926865611659
H           2.66147061879145   -0.57853467954045   -0.50873408578903
H           1.50820266095834   -2.02992009857097   -0.74592821106875
O          -0.01642042985286    0.22880563304313    2.81454417318936
H          -0.58601189525256   -0.51611324080532    2.35234613508117
H           0.67058716955581    0.23963833439881    2.01100218783796
H          -0.57669098580134    1.08861109494829    2.69403792301248
N           1.32867609814340    0.02785684584658   -3.09997503461908
H           1.48740884340855    0.99851564568682   -3.33964683975900
H           0.52115276113220   -0.00850506293574   -2.47601680151281
H           1.07932504924247   -0.46205567071509   -3.94994455953305
