    23
        -45.35897538  Gyration_radius:  2.43166096876 Dipole_moment: 3.199
 S          -0.16632340503865    0.38026431457815    0.85571313839653
O          -1.31665906086166    1.28067057019594    0.71979664753526
O           0.22996395307836    0.36328001122006    2.34370542083053
O          -0.56204681459003   -0.99923719527329    0.49151539548160
O           0.96084711783352    0.82647287262201    0.06177470102965
O          -2.18270994469070    0.29217918331422   -2.67950576328154
H          -2.79994734349634    0.76052223959639   -3.24468427662841
O           1.36799695222473   -1.90797351457830    2.24661291916244
H           0.72449773569772   -0.51324786594057    2.48224916653469
H           0.70343635589131   -2.15647975923915    1.59131223881602
H           2.17282383747710   -1.65289687491947    1.72059618821176
O          -0.43550578991249    2.05139240406147   -1.82754663925027
H          -0.92467442734650    2.59272752107710   -1.20018894530330
H           0.23277889953364    1.60133679236072   -1.26931864672608
H          -1.45294305653892    0.93458384807507   -2.45705485020043
O          -2.77891776068177   -0.39194597346237   -0.31217399535257
H          -2.64506711986722   -0.19822576671533   -1.31808377980916
H          -1.91327737099983   -0.93093024408635   -0.02345284295138
H          -2.43342787750850    0.46969704939456    0.16411619358771
N           3.20114822547551   -0.87653113165018    0.59966965190101
H           3.52659123809530   -1.36879134609732   -0.22288148048778
H           3.98577651115622   -0.36363281359781    0.98169880164208
H           2.50563914501131   -0.19323432088109    0.29613075684738
