    23
        -45.35897734  Gyration_radius:  2.43195287371 Dipole_moment: 3.204
 S           0.41386947452323    0.77484319959700   -0.35583701164411
O           1.21677118280635   -0.34553531302189    0.09147239340877
O          -0.89441452939914    0.80412080932050    0.33411750409138
O           1.13884540297299    2.09126844347409   -0.01952182094010
O           0.21004691933863    0.74893856049656   -1.80968184828373
O          -2.10339574964098   -2.06334628260839   -1.83316953477277
H          -2.37618303345777   -2.53882716132581   -2.62012174401753
O          -2.21629320678676    0.46474963787005   -1.68688692382926
H          -2.31289554484504   -0.56122962855867   -1.76478876569393
H          -1.92340498134741    0.63307800694619   -0.68770981730657
H          -1.24638653194040    0.65861038609556   -2.03205711681349
O           0.51795496265928   -2.03747049824637   -1.82384250832753
H           0.75510775633100   -1.42985887017621   -2.53130989614572
H           0.83554062852210   -1.58292704404234   -1.01554291036128
H          -1.11284230772333   -2.16069615773354   -1.76808206492760
O           0.33343000871557    2.17835780321555    2.39032007298028
H           0.92074175005853    2.27914683584176    0.95459731448517
H          -0.48326879543083    1.76893543207116    2.07675429756550
H           0.87668084687018    1.43114981629978    2.75883049307721
N           1.73347366667362   -0.04102757345039    2.89363326617381
H           1.63372589927689   -0.29577640959003    1.90982268839412
H           1.35907359775673   -0.80177967618491    3.44671418134695
H           2.72382257337288    0.02527566374411    3.09228975191336
