    23
        -45.35897725  Gyration_radius:  2.43189510776 Dipole_moment: 3.205
 S           0.25842142675818    0.86349147262614    0.29399237988407
O           0.20563672813702    1.87458307336569    1.45441326251085
O           0.85883468500753   -0.38131789698702    0.82181444712433
O          -1.08277094658332    0.62846140093687   -0.20197394816894
O           1.12692114341340    1.43503741960570   -0.74270373079091
O           1.43417424948167   -1.60768557477749   -2.71990471405799
H           1.79745274565310   -1.64800458315799   -3.60657350685183
O           2.66196438415613   -0.46811968854284   -0.81751352281517
H           2.27484502794524   -1.02091610390131   -1.60022687810928
H           2.23741636928246    0.48160316317237   -0.93886244314332
H           2.02810219843875   -0.67677186763543   -0.00043916563644
O          -0.39569348328680    0.15047197322953    3.22347115986538
H          -1.33113677478452   -0.03610977926624    2.94167189228471
H           0.14923437421133   -0.47279258538488    2.72593595660748
H          -0.04058757016713    1.33075320484189    2.27622685103569
O          -0.43162805659455    0.23358969168817   -2.73949902271962
H           0.05003083458586    1.06372377904132   -2.80879000813350
H           0.64627392206456   -0.99735501588298   -2.76016161383249
H          -0.84783138058842    0.28358563498630   -1.85342784918431
N          -2.72244010417439   -0.25707189139701    1.97486055172714
H          -2.27648538752239    0.03527765513880    1.10400479732296
H          -3.49886922285468    0.36973839840074    2.14493748560581
H          -3.10186518260602   -1.18417189996208    1.82874760870177
