    23
        -45.35897737  Gyration_radius:  2.43188180339 Dipole_moment: 3.208
 S           0.22987714733077    0.60059301365021   -0.69678433610416
O          -0.21531916841977    1.93764505530005   -0.28451726648518
O          -0.93053670336102   -0.31388117427467   -0.77216525512217
O           0.80515350171278    0.72917598295005   -2.11956899725379
O           1.25043167650405    0.07982940878393    0.19043111114493
O          -2.06697873270253    0.84509616900155    2.65447820955858
H          -2.40025424536309    1.42753013234176    3.33965515202032
O           0.48486494900368    1.37457343911043    2.37137356880487
H           0.50656690739431    2.23573596697138    1.94260044473236
H          -1.07664881188257    0.96221339063641    2.63485634362881
H           0.86756538062154    0.77375366104834    1.69799969596907
O           0.42315117349601   -1.70820731271228   -2.73352468997593
H           0.73365780319611   -0.19928111592588   -2.52527486030755
H           1.12335048124577   -2.12076375881863   -2.16015448437339
H          -0.36788879920585   -1.66832092670926   -2.18067905583247
O          -2.51736746130529    1.26512389982250    0.19552658784590
H          -1.65918996311680    1.83403754418007    0.00134406330688
H          -2.08486054064322    0.41180236004086   -0.24816136485393
H          -2.47673164632748    1.08374982828919    1.21201855657537
N           2.19296330960081   -2.41436067484286   -0.86039405439856
H           3.18279200015619   -2.38854153575549   -1.07067148225467
H           2.03220949142699   -3.19123794689140   -0.23154718628805
H           1.96319227089649   -1.55626540573250   -0.35684070054460
