    23
        -45.35981393  Gyration_radius:  2.32637858141 Dipole_moment: 5.641
 S          -0.85877024890011    1.96353368039390   -0.03052758449086
O          -1.41047153746698    3.18813303346339   -0.46971076314726
O          -0.15180513688955    2.10848272434156    1.34816441110200
O          -1.75070361877911    0.83032989778478    0.05432479810454
O           0.32695478842933    1.58020846090273   -0.96456839306379
O           0.53996329184677   -1.70778309330269    1.37866933771690
H           0.82155746327758   -2.60201851311560    1.57457665172044
O          -1.11962525960237    0.08900270126439    2.55505310550374
H          -1.82465526925512    0.06092000325847    1.89236255320315
H          -0.51359551803417   -0.64201981401716    2.32112730646243
H          -0.50913114654569    1.36775596175980    1.94359773642190
O           1.99125801804773    0.38449380879880    0.58174268797601
H           1.01799399678638    1.08990046551224   -0.41682389866665
H           2.00502953818125    0.99042661968897    1.32790928161267
H           1.55514062478500   -0.44033731462096    0.89475003315254
O          -0.96624877878944   -1.64646645450000   -0.69119460045075
H          -1.42540223720113   -0.80550687613520   -0.51571485066886
H          -0.42148726846659   -1.47401326682677   -1.49508355682717
H          -0.05222590199572   -1.76550864828786    0.55679169461059
N           0.55144835817709   -0.79989190452401   -2.78420498960033
H           0.49642227904421    0.17969830221712   -2.52266043079536
H           0.16739003176559   -0.89692567878054   -3.71563032281924
H           1.53096352158614   -1.05241411527785   -2.82295019705758
