    23
        -45.35897660  Gyration_radius:  2.43181060448 Dipole_moment: 3.203
 S          -0.72567707423706    0.58911777056687    0.16458223499742
O          -0.22391445984288    1.67255940596949    1.01846766820536
O          -0.06776883744907    0.57670476054698   -1.12651726218056
O          -0.56849579925941   -0.70947186998199    0.85657945670528
O          -2.23509421156993    0.82307855038693   -0.03184451893284
O           3.02379923611390    0.16732020886989    1.69123426712813
H           3.76549332880101    0.62313556411940    2.09357275050748
O           0.71000234258784    0.18970580536817    2.72672277207749
H           0.35037281067606    1.03351298668503    2.22378258960836
H           0.18106898494192   -0.45538727802641    2.07831598951832
H           1.69584479177749    0.11594079397371    2.42612923632856
O           2.23058732431732    1.63021627557313   -0.33443460541788
H           1.81006903148761    2.39489896525571    0.07103360315423
H           2.80406982882845    0.66093064064223    0.85284387930574
H           1.49074043208729    1.17752893241820   -0.79101853194457
O          -2.77149011745002   -1.60838201888339   -0.54534610157079
H          -2.06971102540012   -1.84006974533962    0.07654525133374
H          -2.62240611359985   -0.08741222818090   -0.26172329457629
H          -2.35441943954004   -1.66938963130287   -1.44625249523654
N          -1.30114869005762   -1.42188856726054   -2.76837177818179
H          -0.75680148275169   -0.68637710020506   -2.31511447346821
H          -1.70821548231944   -1.02698472650806   -3.60681577358308
H          -0.65690538813203   -2.14928750468020   -3.05237086377713
