    23
        -45.35897638  Gyration_radius:  2.43175760117 Dipole_moment: 3.203
 S          -0.72357957179493    0.37469772174430   -0.48717642796712
O           0.55807021610962   -0.01346901401716   -1.11727976719011
O          -1.83967999689033    0.09370985041991   -1.51040015315275
O          -0.96838987845750   -0.39414935555119    0.71649389002244
O          -0.73018982113773    1.81786115740369   -0.21966050110771
O           2.45261444806952    1.90069936497726    1.54944835067844
H           2.77614615341415    2.64514530177190    2.06021218218396
O          -0.80126240006050   -2.05462297219914   -2.38781567953530
H          -1.57614458787951   -0.77470514235875   -1.96674100340779
H           0.05793886061505   -1.64218943128481   -2.23111560378651
H          -0.96176471638911   -2.63556003113314   -1.59653796377535
O           0.04636294641334    1.35068026481999    2.43281521391211
H           1.59253441011386    1.61766220225379    1.96771749326018
H          -0.49931962791694    2.07549357287206    2.11212729012960
H          -0.30426167787089    0.57085855728927    1.95355005847751
O           1.61516502522885    2.16319642998074   -0.82888867886594
H           1.41723829544734    1.15964749447308   -1.09590505795410
H           0.60924441595162    2.32731478677799   -0.59543327693106
H           2.08292379342302    2.10423248829960    0.09052395909677
N          -1.16518293750501   -3.16529903065453    0.01467634082338
H          -1.11453733072269   -2.23155978578477    0.42491988234040
H          -0.45600779244888   -3.73450021586607    0.45952181283094
H          -2.06791823661364   -3.55514422307000    0.25494764065703
