    23
        -45.35897580  Gyration_radius:  2.43170021526 Dipole_moment: 3.201
 S           0.82256769712015    0.47347553687951    0.05257771126538
O           0.28926579245608   -0.34808054381655    1.16259958744112
O           0.50101582337132    1.88696298433224    0.27991342999232
O           2.35652612634117    0.34140766469100    0.08309691159017
O           0.32427355556698    0.00941905657241   -1.22658288029226
O          -3.06369195500299    1.38767223828624    0.84811430187039
H          -3.71621826738327    2.08990408782894    0.87714287151724
O           2.35649090414146   -2.12285121118268    0.70806525849599
H           2.03644397455848   -2.49895246871634   -0.15540376004895
H           2.54015990714245   -0.62912465551526    0.32051761887666
H           1.55710959050297   -1.94083151159880    1.21865512373414
O          -1.73641506416227    1.66601958904297   -1.39557992354374
H          -1.07761269208643    0.94457605234799   -1.47483692767381
H          -2.64537112576844    1.42177494485132   -0.05664835170388
H          -1.19574691178784    2.45046902015172   -1.26069571304299
O          -0.93393104111139    1.47312995587488    2.22073653076180
H          -0.50245193740251    0.53165935684423    2.00047410670636
H          -0.33614321099737    1.94398082957411    1.50570482836930
H          -1.87144234761918    1.44096778057940    1.78773025492334
N           1.22055606867228   -2.67947997289023   -1.64503956403802
H           0.81984255945428   -1.74022644416105   -1.64387184778070
H           0.45711801851431   -3.33828136432348   -1.73426655080386
H           1.79765453548708   -2.76359092568744   -2.47240302661855
