    23
        -45.35897537  Gyration_radius:  2.43163423966 Dipole_moment: 3.200
 S          -0.36449564575841    0.81962217007253   -0.31652326259528
O          -1.00061373270330    1.53665807825637   -1.52176150845434
O          -0.42109201844721    1.74350669377445    0.82173830793404
O          -1.18848576255623   -0.37757340448118   -0.03359969432547
O           0.99880326866400    0.45005214544150   -0.64016313784911
O           0.45513826206282   -0.71864936964582    3.36213853557181
H           0.69868910609118   -0.50920910007987    4.26578038596136
O          -1.64516387622003    0.20736194973862    2.28555344724485
H          -1.62869147766145   -0.27414534739708    1.34154327549014
H          -0.87795532833441   -0.23312992296647    2.81909072996161
H          -1.21689672038886    1.06931976868742    1.88281465105881
O           1.99679816978417    0.71517609387741    1.79978786738719
H           1.67238097507790    1.61542313255756    1.90082503951700
H           1.12164387902142   -0.26731926486536    2.77326169790505
H           1.79712606881948    0.50351923616174    0.86379427819866
O          -1.61811677307847   -0.59991247335902   -2.75344300928537
H          -1.76894001809603   -0.99647331768255   -1.88580587345812
H          -1.30815200233915    0.79647851260376   -2.14591812761002
H          -0.70522414738869   -0.89140744178791   -3.02019721802969
N           0.98179439727467   -1.15723531802026   -3.01176696811048
H           1.35289653124268   -2.08657182128433   -2.85870316055954
H           1.15566455316787   -0.61175689162531   -2.16619617764912
H           1.51289230175380   -0.73373409823922   -3.76225008835802
