    23
        -45.35897529  Gyration_radius:  2.43161055268 Dipole_moment: 3.200
 S          -0.79122111942353   -0.38641620626383   -0.36021212631331
O           0.51795424719058   -0.42891061823348   -1.05063218003461
O          -1.87570090471126   -0.26167157765586   -1.44635830246312
O          -1.02304561889510   -1.65120747244707    0.34607999161565
O          -0.87236275618002    0.75046901517723    0.53466950023557
O           2.16059249963862   -1.69224053795896    2.12007086029950
H           2.37483288786275   -2.28143480937462    2.84581283268570
O          -0.52992548515122    1.30568330185186   -2.92810143984837
H           0.25617601315305    0.82932464774646   -2.63158240325600
H          -1.48831324004881    0.36570637170886   -2.14517899633767
H          -0.57064737853531    2.12286942397516   -2.36236595774554
O           1.21853082585187   -2.54615171612402   -0.07338748730896
H           1.17171256887645   -1.65444036148585   -0.64465886525750
H           1.71812053416395   -2.27922466924045    0.79057685333076
H           0.20916285915495   -2.46891146191284    0.17854117622848
O          -0.09713064263864   -0.50882015256844    2.73305266306428
H          -0.76250507212209   -1.19846173208660    2.64602361086007
H           1.37086212463273   -1.15609556353030    2.40916032415647
H          -0.33272817200329    0.12726024078735    2.02549222914213
N          -0.63743186001852    3.15578220803271   -1.00394382292597
H          -0.72728030743686    2.40207299014168   -0.32084931810110
H          -1.45726363714364    3.74341171612426   -0.91902878908347
H           0.16761164389738    3.71140696335461   -0.74318035313268
