    23
        -45.35981435  Gyration_radius:  2.32614883877 Dipole_moment: 5.668
 S          -0.39152780283577    2.11034671172717    0.05118332311701
O          -0.38453879729623    1.89824101872318    1.59281589115163
O          -1.40416280869403    1.24190567006777   -0.50331148648575
O          -0.45717268800471    3.47985002431003   -0.29063657029568
O           1.00385409219939    1.55409304155886   -0.35910277527508
O          -0.46840735576851   -1.94305639385717    1.05220265581182
H          -0.47177065624961   -2.89655754410462    1.14224216974966
O          -2.13674539848272    0.06493563347243    1.79416799713432
H          -1.09912129506739    1.20744495776991    1.80028226223970
H          -2.44959091694321    0.30084101501478    0.90896994957864
H          -1.63043339899914   -0.76375264773185    1.67854200945109
O           1.53081814938813   -0.21595251819983    1.42466833123039
H           1.30942475405984    0.26923812536491    2.22443377177953
H           0.86122094686124   -0.93132277263558    1.33313248992280
H           1.26637110001533    0.83628442457288    0.29931241938809
O          -0.81280872053353   -1.24368178785160   -1.38654651935368
H          -1.14527229583705   -0.34042594772484   -1.23682329847152
H           0.06422331104323   -1.12154438531803   -1.82099633722174
H          -0.61568759106260   -1.74568934514443    0.06777704143922
N           1.62949208227522   -0.57637750249569   -2.38155474965691
H           1.72615895489469   -0.47363716677633   -3.38381306661959
H           2.44789522943768   -1.06275160400840   -2.03748248009413
H           1.62778110560095    0.35156900326129   -1.96946303851593
