    23
        -45.35897499  Gyration_radius:  2.43155344816 Dipole_moment: 3.198
 S           0.74851709405722    0.52722878329784    0.25945002784519
O           1.35927195267009    1.38514193819465    1.38292892241038
O           1.63416109806890    0.63604037031954   -0.90486246176968
O           0.62425419300170   -0.84338243552100    0.71311642044764
O          -0.57688748687121    1.10449041834341   -0.06151227093642
O          -0.67173156680407   -0.88023835042396   -3.28592745733319
H          -0.43495754296469   -1.16662815495544   -4.17004255843044
O          -0.11006662449407    1.43830525503615   -2.42732015829946
H           0.81823874928143    1.20389715567513   -2.01450800648884
H          -0.41796311195354    0.56093018430799   -2.87752053464388
H          -0.56819798006164    1.42621891957723   -1.47069032712165
O           1.02868199054717   -2.00176866862827   -1.63527660756086
H          -0.10399481029053   -1.40214359526084   -2.65353239589383
H           1.85709027358250   -1.53731943640607   -1.79000255109045
H           0.79712134263418   -1.75645087250506   -0.71499613064697
O          -0.83631660305751    1.73828370323086    2.61491781733505
H          -1.26395629836694    1.73863040704404    1.74894049508351
H          -0.96209113852444    0.81739244666304    2.96943020361284
H           0.58482788601058    1.61749389075020    1.99798638517962
N          -0.93199556205237   -0.88362460626799    3.11813818045111
H          -0.41389507065113   -1.26323761907415    3.90051580763607
H          -0.37513226684634   -1.03856329344969    2.27631461824073
H          -1.78497851688078   -1.42069642989094    3.02445261256986
