    23
        -45.35897494  Gyration_radius:  2.43158461669 Dipole_moment: 3.198
 S           0.85051701336228    0.39117275685400    0.17062322816176
O           0.41020148884291    0.15714014953977   -1.18996908065797
O           0.17982838078214   -0.53249228606649    1.11402583558808
O           2.36404415937738    0.12608225010975    0.27181245926438
O           0.62074025786961    1.77945524750232    0.58491208939427
O          -3.00336956993946    1.50415241580468    0.86096044006892
H          -3.60269679532247    2.24692883872615    0.95506059092664
O           2.13465157855255   -2.39329606145657    0.52329167656879
H           1.31742398097559   -2.21987034897241    1.00791570605498
H           1.84850487507997   -2.61370312107056   -0.40358908760601
H           2.45668930750352   -0.88051563252775    0.37297147185630
O          -0.97592101243172    1.21371399512771    2.35543645952388
H          -0.29709486929833    1.73224927322211    1.75770293772411
H          -1.88009357138240    1.32195457181681    1.86756334035511
H          -0.59844396801995    0.28054822179250    2.02069241886217
O          -1.50259074243097    1.99008585384137   -1.23320610167206
H          -2.52045394666884    1.63254895612722   -0.00215576612756
H          -0.91502731590000    2.69755273341856   -0.95005758029411
H          -0.89635832288202    1.23403254493269   -1.38014042872120
N           1.12857331762807   -2.51041956809207   -1.94870118025887
H           0.80071305280800   -1.55036870372198   -1.83213538300514
H           0.32579032734024   -3.08259379898054   -2.17881971241127
H           1.75437238416198   -2.52435827793216   -2.74419434361195
