    23
        -45.35897744  Gyration_radius:  2.4319750956 Dipole_moment: 3.205
 S           0.86252059803939    0.35374547132143   -0.17002576641302
O           0.25442891340735    0.50013510550838    1.13718432025249
O           2.37768333388380    0.13060259552486   -0.00811420215664
O           0.31821183862116   -0.82179768918846   -0.88424306972613
O           0.68496037975697    1.56010090880787   -0.98809552966157
O          -2.87278074597727    1.09494236245809   -1.60962099116803
H          -3.45292593839100    1.76093988290195   -1.98333446970733
O           2.18746948070758   -2.36513455104781    0.43779919359222
H           2.48564000660894   -0.85954029127336    0.19115166394587
H           1.78847101322807   -2.32652883400456    1.34803870567024
H           1.43655842728832   -2.36280863638860   -0.16972142984325
O          -0.67380517138905    0.46599544898194   -2.70236592769280
H          -1.63227782177929    0.67691625576202   -2.37842962934495
H          -0.07161801302929    1.15137107668738   -2.18702826462611
H          -0.34846793402919   -0.32487182477986   -2.08549080655824
O          -1.64850042125654    2.20137837747590    0.42729465575790
H          -1.06533714447903    1.53939162595024    0.85452346851503
H          -1.03021963109119    2.82159684320542    0.02855685493140
H          -2.50264149289450    1.47755764833911   -0.76610909221101
N           0.87963787999543   -1.81739593683127    2.70249432627580
H           0.56624266725240   -0.94253210328492    2.27926090649995
H           1.40075644084591   -1.58220766005213    3.53782998860716
H           0.05599332465485   -2.33185607622400    2.98844508510495
