    23
        -45.35897532  Gyration_radius:  2.43164884843 Dipole_moment: 3.199
 S           0.75777439229080   -0.00851117511730   -0.57483091522208
O           1.23085520253846   -0.02551886846244   -2.04021628545723
O           0.04378941447848   -1.23567338235550   -0.28456268328018
O           1.94969328343288    0.13863439614007    0.26783156015556
O          -0.12187358125648    1.17129015642177   -0.41170190690228
O           0.15380833332391    0.86854760619193    3.35413430893798
H           0.54882608199257    0.87633119620492    4.22800709894989
O           0.75880011063765   -1.43526080452919    2.25877854960330
H           0.34369639606130   -1.49234820610942    1.37266787226163
H           1.69860769733576   -1.36973898132435    2.06289420189730
H           0.28072798358151   -0.05122348229024    2.98993604951578
O           1.15672749202389    2.15405027793406    1.41264575968913
H           0.73268919685311    1.75869751784690    2.26774273119580
H           1.76927655593544    1.39028638695788    1.05226899275046
H           0.44205031311565    1.97708659673912    0.65017466748603
O          -0.98908028946967    0.75607461091858   -3.00154479379413
H          -1.09321446867852    1.28342066181809   -2.19912673143237
H           0.42664487719566    0.26680738033568   -2.58780642394742
H          -1.52222945575309   -0.06891735467876   -2.84453277168799
N          -2.11343883101445   -1.51252409092042   -2.14950523386629
H          -2.02891211691162   -2.35338434541758   -2.70669390174596
H          -3.02066497231644   -1.53081984457167   -1.70070345513231
H          -1.40455361482409   -1.55730625189228   -1.41585668989272
