    23
        -45.35897521  Gyration_radius:  2.43155940009 Dipole_moment: 3.199
 S          -0.44320078474008    0.83386657957558   -0.11595460337293
O           0.03809428333806    1.73690052389784    0.93526979937339
O          -1.09043387488232   -0.34930542861501    0.49538093483902
O          -1.52707615324962    1.58798365820610   -0.90827103682553
O           0.62333973638244    0.43919167142424   -1.01403916238399
O           1.87989838414710   -0.79311112901623    2.80370198055302
H           2.50513829562132   -0.60647381849564    3.50654274315364
O          -0.45236948135327    0.20090694858210    2.77974336844677
H           0.45885053186193   -0.26729130001844    2.91324167585317
H          -0.22286125262444    1.06057596738160    2.23540720422734
H          -0.87085264885512   -0.26208801746957    1.92269757046823
O           2.60817866388024    0.63632119051008    0.73000987683186
H           2.22834888273872   -0.34564080412617    1.98333975763377
H           2.00804385148284    0.44670141459176   -0.02140701092383
H           2.38731525100600    1.54130984082805    0.97121117545260
O          -2.68925515155026   -0.50984773091817   -1.75186315065911
H          -1.99839184926449   -0.81741563936800   -2.39811581405853
H          -2.45113535794825   -0.91929947373760   -0.91018184764019
H          -2.10122063836217    0.86713026245198   -1.33576066328413
N          -0.49141212016872   -1.12249706403156   -3.14150165432387
H           0.05539040089812   -0.59705257930430   -2.45763286123480
H          -0.33601811221911   -0.69788610910289   -4.04714331925892
H          -0.11837084606057   -2.06297898378917   -3.17467496264183
