    23
        -45.35897637  Gyration_radius:  2.43175389269 Dipole_moment: 3.203
 S           0.04855243081049    0.94527880300482   -0.07395542522817
O           0.70134545716582    1.44610870857995    1.14150589888712
O          -1.21200692692826    0.29563858225533    0.22410043208473
O          -0.20365410804619    2.15686656751301   -0.99050533326100
O           0.96271954033993    0.03164002328163   -0.79500336485011
O           1.66908981567641   -1.81767949356596    2.43697764739278
H           1.99222780137116   -1.98060311181687    3.32511684139473
O          -0.59376445148422   -0.51452312033099    2.66977601207357
H          -0.97094867782915   -0.35856813924388    1.77861767292696
H           0.75376305285786   -1.43270626459476    2.53061294803825
H          -0.33590132484882    0.36538510586656    2.96172115711589
O           2.65742682383640   -0.01345669304243    0.95552579761823
H           2.12692866584603   -0.16542356922344    0.05380410873140
H           2.00916527130414    0.75673240971917    1.23809291723246
H           2.38621677808140   -0.80766902942524    1.55823709718256
O          -0.28227098254247    0.79852573632514   -3.13811791777495
H          -0.27225161022618    1.77610098804445   -1.92973600780912
H           0.37924704152587    0.22102494544164   -2.73591052091487
H          -1.15297039659552    0.33913848760164   -2.99594399418039
N          -2.48545134224422   -0.41810788095659   -2.24155367418146
H          -2.62760679838188   -1.41596809338408   -2.33575500301436
H          -3.38557405264788    0.03233572364724   -2.34888448950666
H          -2.16428203706223   -0.24007067567577   -1.28872281992140
