    23
        -45.35981436  Gyration_radius:  2.32613381008 Dipole_moment: 5.669
 S          -1.45641432001092    1.09820239136311   -1.13263293253655
O          -2.43363014754717    0.00835659695478   -0.60445402103016
O          -2.06983428212763    1.93295686868455   -2.09367268573443
O          -0.85898117521371    1.74060333273100    0.01517718623381
O          -0.36231791292637    0.24039049234251   -1.83401034434286
O           0.27745229591925   -1.19225297270056    1.89806259724228
H           0.79482828318855   -1.64646177118890    2.56387673531529
O          -2.03317018053314    0.23140953401764    1.89787758585043
H          -1.64336065373635    1.10200006418559    1.73287207986593
H          -2.39529218619165    0.04207226764066    0.40956871517370
H          -1.27661901040711   -0.36306612368257    2.07300859267215
O           1.49137105835164    0.89640678955696    1.05012818342299
H           2.01747925565798    0.66809023217854    0.24766727065574
H           0.72185166671402    1.38898801336997    0.71245212950366
H           0.81667419489123   -0.37928823901164    1.61863185563837
O          -0.38969439158556   -1.98840048824993   -0.55947800005682
H          -1.33472053313221   -2.16171595835281   -0.52887664968772
H          -0.31064802144555   -0.65261049507038   -1.36757557840198
H          -0.10642051363384   -1.80030824184092    0.36403918790530
N           2.60177340745003    0.25797894934451   -1.34975753866880
H           1.73725423132946    0.38061258343390   -1.86790070462213
H           2.91990706077298   -0.69040723752709   -1.50494243156734
H           3.29251188420825    0.88644338183169   -1.74006124283068
