    23
        -45.35981435  Gyration_radius:  2.32613581142 Dipole_moment: 5.669
 S          -1.47208162668879    0.02738746994309   -1.56274578226450
O          -1.21559672223166    1.27596782524411   -0.66826410771411
O          -2.25266880081974    0.41371935795033   -2.67545340942985
O          -0.20030114995655   -0.60171936726289   -1.83456204495930
O          -2.26043460950201   -0.90564786537655   -0.59858745241961
O           0.92329354148770   -1.32489351652827    1.57919798408158
H           1.57140961909587   -1.54622735226586    2.24870645998319
O           1.99901764093103   -0.04948066469477   -0.36279603089275
H           1.33854575943864   -0.24310012279410   -1.05207221462359
H           1.92066706853049    0.92064456216444   -0.20287127581556
H           1.42248928604130   -0.83144359808534    0.84635259971937
O          -1.15506627132853    0.34195922131998    1.72268237093510
H          -1.16546446446465    0.97385763722771    0.29291956029068
H          -1.93730073512755   -0.21666745212446    1.71293341493286
H          -0.37843956549882   -0.25958371004674    1.78178711724289
O          -0.52613664573713   -2.73079602272293   -0.23420268257650
H          -1.67167808205309   -1.71340355816711   -0.42034093204304
H          -0.06807622337289   -2.41978989584020   -1.02828150465454
H           0.00826907768007   -2.40639649879063    0.51787711508931
N           1.40861611216743    2.58333989536627   -0.01658265835294
H           1.91797645087830    3.26440829316209   -0.56532561595000
H           1.31899446087128    2.94513356429604    0.92458555433108
H           0.47396587966412    2.50273179802291   -0.40495646491124
