    23
        -45.35897522  Gyration_radius:  2.43162090268 Dipole_moment: 3.199
 S           0.53186354831780   -0.51216600287686    0.59992189498766
O           1.21637147078681   -1.87149645389820    0.83457974862184
O           0.69294829240380    0.27622239731278    1.82658930632817
O           1.13839291243156    0.14216852528446   -0.54195776257490
O          -0.90444435369649   -0.78024077929475    0.35969631174921
O          -1.69316732088608    2.88073267953408    0.92811838054860
H          -1.79003748044255    3.71637326344463    1.38863485152226
O           0.84358461370237    2.63203751334747    0.31446976495065
H           1.27916198348093    2.45908741968497    1.15487097192814
H           0.97605227953814    1.80059722601815   -0.18742738131732
H          -0.75546548179646    2.84628337787990    0.59013825407247
O          -1.70471716422932    0.66036299006736    2.15195905511763
H          -0.67657312682701    0.59541061888195    2.31528555298001
H          -1.83399580383761    1.58234479044179    1.70421200813001
H          -1.64704356253458   -0.02569892199071    1.34570807240361
O          -0.15226652597710   -3.11586248598032   -0.90942930421610
H           0.77468202351308   -2.51327876438297    0.18260029181505
H          -0.88813688577698   -2.53744275508054   -0.67122618563171
H           0.24304026714295   -2.71378128046949   -1.72892422899551
N           0.96055465378495   -1.60161321018755   -2.80823038292645
H           1.87271546264264   -1.84561697478370   -3.17302216205340
H           1.09482516206391   -0.86977118197809   -2.10884464034088
H           0.42165505620371   -1.20465200101880   -3.56772241706760
