    23
        -45.35897569  Gyration_radius:  2.43171127325 Dipole_moment: 3.201
 S          -0.21076441424761    0.85440962098987   -0.35970022916727
O           0.09198308443910    1.85176695319430    0.67301434632643
O          -1.23689837359317   -0.08929850415598    0.13848159482840
O          -0.82360272103542    1.60491036705482   -1.55660073113366
O           0.98028695264315    0.15056618815544   -0.79085956906324
O           0.72385201611896   -0.54009389917182    3.34891409740271
H           1.12553626167314   -0.32327606176002    4.19235988690728
O          -1.23951566268589    0.76653737095611    2.41871340529864
H          -1.45731819945299    0.22190854791326    1.53694621373224
H          -0.52647227742841    0.20128307612807    2.90808849997716
H          -0.68598924808441    1.46876193677031    1.87985970889661
O           2.32649024660434    0.36332795170878    1.48110336934450
H           1.39044324745391   -0.30596428879753    2.64493780027609
H           1.96213349460241    0.13217902999287    0.60099609252593
H           2.22868149394527    1.31974814649476    1.52082659337556
O          -2.06141931779877   -0.41574291657072   -2.47746539091992
H          -1.36908084635979    0.91167914748776   -2.06045646386694
H          -1.28055285286410   -0.93355458448893   -2.81148779609601
H          -2.18019204531584   -0.69645691762773   -1.56098063940102
N           0.29039642151555   -1.58687130477106   -2.96209000672236
H           0.69219412742307   -1.03361439028120   -2.20365217879342
H           0.79860115724922   -1.35957582400030   -3.80748895714840
H           0.46120743518981   -2.56262962504933   -2.75345963639893
