    23
        -45.35897555  Gyration_radius:  2.43164207687 Dipole_moment: 3.202
 S          -0.02605788762000   -0.86222804626114   -0.40021337382774
O           1.17815402951597   -1.58188057146593    0.02945798280121
O          -0.77825299182452   -1.77447354268697   -1.38679676623804
O          -0.89042410671598   -0.54689729556585    0.71929442902493
O           0.35696200982613    0.36194988638006   -1.13952760578989
O           2.79083455156577    1.27522270604491    1.61636085273952
H           3.55765267298431    1.22113084070583    2.18978180447811
O           1.00565556539195   -0.39492828987367    2.56366337805854
H           2.07199082928054    0.73410628429624    2.04663346307337
H           0.19260247867629   -0.34426400383499    2.01853364941968
H           1.35864925995367   -1.26672519812656    2.36045775554484
O          -2.00160567023681    0.12189826864995   -2.55742349975286
H          -1.21305113267334    0.65778468950755   -2.40304675626764
H          -1.34738498108055   -1.15122689498480   -1.95218729441691
H          -2.63301136195618    0.36826660139568   -1.82931382644871
O           2.73843801299476    0.17327657369540   -0.66628485979856
H           1.79612639825785    0.48972187134012   -1.03249141222305
H           2.86989142305129    0.70024197401895    0.21264905752761
H           2.34148172564057   -0.74235802324264   -0.36065445432212
N          -3.29949371575798    0.63852679818524   -0.28018719700282
H          -2.50771504290453    0.24362013957760    0.22963173255738
H          -4.11947495563220    0.09729573666331   -0.03650466804397
H          -3.44196710062067    1.58193951523907    0.05816761878006
