    23
        -45.35897766  Gyration_radius:  2.43195202087 Dipole_moment: 3.208
 S           0.51591895613011   -0.62768847609112   -0.48780972516659
O           1.09105449983648    0.07759374096952    0.63988051213129
O           1.58845557964471   -0.81234033258672   -1.57751995900055
O           0.04705226198307   -1.96627743715068   -0.10725347086862
O          -0.59530264291332    0.14119290288112   -1.08934554260610
O          -2.84095306904441   -0.84231343574480    1.80427562281053
H          -3.36235477388048   -1.39835934243077    2.38627094756731
O          -0.33648494454650   -1.10429571142509    2.53306837405424
H          -1.90908116899318   -0.84885906358713    2.15989211492699
H          -0.09385476186837   -1.99101229322306    2.24883978792276
H           0.22500944229791   -0.52394735088383    1.97736423687141
O           1.28712996204640    1.50521780980597   -2.57841367898343
H           1.69112879613159    2.04121806578594   -1.84449930772649
H           1.60629053255576    0.06399855049738   -2.09080166667323
H           0.35221548645699    1.42402865109425   -2.34958837298129
O          -2.30971719596877   -1.51786720521545   -0.58044503677261
H          -1.40080419579152   -2.00040280380726   -0.37954169823587
H          -2.66446118003149   -1.24725769998572    0.35165583545026
H          -1.80788739915963   -0.66255607565515   -0.93678594605452
N           2.17458475446327    2.56253439978566   -0.29045499116901
H           1.83619112054172    1.73036208987065    0.19500489552688
H           1.73535692466687    3.36748034998872    0.13846367410890
H           3.17051299596506    2.62955063669734   -0.12225662402675
