    23
        -45.35981435  Gyration_radius:  2.32613696947 Dipole_moment: 5.669
 S           0.03404078217119    2.10496792493398   -0.42177930078142
O          -1.19196871351516    1.38036206285770   -0.66453910334597
O           0.20510511060648    2.23443506836568    1.11952977709411
O           1.22832976474452    1.18181416903584   -0.80426542478184
O           0.18938689470225    3.34873744870065   -1.07415300951003
O          -0.69094321159978   -1.51922200666957    1.52192167017543
H          -0.86648008539227   -2.40638874234863    1.83720988301414
O          -1.82573648314283    0.91678583389404    1.90134199302666
H          -0.59543473114855    1.77825517862816    1.54603637319258
H          -2.20207050161127    1.01856742442584    1.01527230807911
H          -1.50915601327225   -0.00752769560304    1.94457973537565
O           1.63588737022937   -0.23279270447176    1.29940706404989
H           1.43239658285624    0.58345094707254   -0.01815084584990
H           1.62100637673237    0.45000367061696    1.97588132230560
H           0.83450411238610   -0.78674466248741    1.43875937956191
O          -1.21512934079389   -1.30499661067309   -0.97498389787499
H          -1.34377615805787   -0.34041145857071   -1.01786454558921
H          -0.39671022369404   -1.47448814592998   -1.49873978823122
H          -0.92704033638629   -1.51176365499496    0.53502994053561
N           1.15582652649986   -1.41946590984526   -2.30376183738010
H           1.38819172216563   -0.44695725633470   -2.12730756461590
H           1.13671386007678   -1.55990593456180   -3.30592553523347
H           1.90305671544152   -1.98671496604229   -1.92349859321514
