    23
        -45.35897476  Gyration_radius:  2.43153734313 Dipole_moment: 3.198
 S           0.36811891220700   -0.37468746709364   -0.79401127747716
O           0.10041492601384   -1.30401403548478   -1.99235039139611
O           1.68030135996044    0.24568672442713   -1.00574122939246
O          -0.68658721675280    0.66496588199432   -0.80169420895907
O           0.33050977569778   -1.14621187943007    0.43205493294180
O           1.34450304365703    2.75889269956404    1.61319244605309
H           2.06164900018311    3.30170008228960    1.94605528215933
O           0.85379369123386    2.54852308706545   -0.86539288003871
H           1.02570077498594    2.77500623897104    0.12772662851369
H           1.45818737357706    1.71948730413917   -1.04887546237698
H          -0.01852143900865    1.94412879910515   -0.85749291243545
O           2.13820959280402    0.26438455790311    1.75976795016893
H           2.80082137847237    0.18099581032481    1.06698965455825
H           1.59978717433486    1.80999100138770    1.78363150751950
H           1.41523310851403   -0.32422709103933    1.45715373932196
O          -2.43021758186601   -1.25485914456533   -1.75416240621136
H          -0.90961624191213   -1.40269258486142   -2.03837258108198
H          -2.51606021724770   -1.79600896623955   -0.92386344900224
H          -2.33401846296160   -0.34179515937440   -1.45444858112673
N          -2.19512296138771   -2.48762387252340    0.60411967045237
H          -2.73286293402377   -2.20924037823288    1.41538557328811
H          -1.26396138920859   -2.07844753404034    0.69516763811560
H          -2.09026165786665   -3.49395406576203    0.63516034632128
