    23
        -45.35897551  Gyration_radius:  2.43162682795 Dipole_moment: 3.201
 S           0.50616775092356   -0.38584838638599    0.70684024952573
O          -0.03752859473434   -1.22034203586118   -0.34574603063463
O           0.43230686453349   -1.13962184830079    2.04765101624245
O           1.91597821637363   -0.05832469089592    0.46649325449912
O          -0.28008050395865    0.85932849058482    0.85978763457443
O           1.31181689410393    2.26132036466616   -2.27884709432470
H           1.98957507486331    2.60380524731754   -2.86459402541255
O           1.53190634914128   -0.35107712518001   -2.29528526701178
H           0.83220768680555   -0.73938201058342   -1.72923669679181
H           1.31819227033465    1.26928653181130   -2.38155848748527
H           2.34116415816775   -0.52826913164007   -1.80579521238395
O          -1.99733810488893   -0.54677006528904    2.50448783321064
H          -0.51825432644193   -1.00741105231685    2.38074208235865
H          -1.82079793473883    0.29639207630048    2.06777757059360
H          -2.42628980095658   -1.11669799917399    1.81118442744625
O           1.54267329716312    2.35227965030335    0.24424709780016
H           1.45464586703561    2.45934595402431   -0.77954364612180
H           0.60826676009400    1.96224225122440    0.55623320362712
H           2.00145537775304    1.42305865215968    0.36743938681704
N          -2.70896505556864   -1.97558067557669    0.36228306595583
H          -1.78602619940297   -1.79170837101926   -0.03412824349039
H          -3.39876790229276   -1.64658259309093   -0.30160186834861
H          -2.81230815503871   -2.97944323279582    0.44116977972021
