    23
        -45.35897673  Gyration_radius:  2.43183863968 Dipole_moment: 3.203
 S          -0.18782952713401    0.92025630722798    0.13391725608534
O           0.31536869170625    2.35931086909332   -0.08409988174662
O          -0.44073725891663    0.29830876296344   -1.15026399872799
O           0.86388116956181    0.19510252300576    0.88069761974080
O          -1.40802864285772    1.00335993042297    0.94583587941982
O          -1.61421795679571   -2.55236788301894    1.70684615101214
H          -2.37657644751755   -2.98527517034040    2.09562912263938
O          -0.58958332204800   -0.46765459666039    2.72187311343058
H          -1.15081941731541    0.23011819049695    2.18061311508109
H          -0.97417637254177   -1.38207296859492    2.43261328201280
H           0.24901375838455   -0.31772241077080    2.09740462172448
O           2.73224205076891    1.68866198617606   -0.49920966513121
H           1.30859033715018    2.27221895646439   -0.27847358223027
H           2.58886009693716    0.97629054280919    0.13711702889562
H           2.62189982005814    1.26769558782967   -1.39356838558302
O          -2.46997839875165   -1.22344827922100   -0.38459510475170
H          -1.92005687895864   -2.15048584547112    0.84673935227569
H          -2.96340164547953   -0.48470805935055   -0.01477456172980
H          -1.70969579443601   -0.79182548693569   -0.82779463085846
N           1.95592167650222    0.41638008831079   -2.71676409671511
H           2.30808116238618   -0.49957476990060   -2.96543059318999
H           1.82437809399241    0.93843782394849   -3.57397422995409
H           1.03686481543341    0.28899390128557   -2.29033780172785
