    23
        -45.35897770  Gyration_radius:  2.43197805242 Dipole_moment: 3.208
 S           0.48551480376391   -0.80214354321603    0.13693422783684
O           1.42390662141279   -0.56015575389006    1.24029383427697
O           0.74778150894855   -2.22870134953978   -0.38080524588360
O          -0.89195928768418   -0.69358333393516    0.57358598504933
O           0.76880613031549    0.12952867034503   -0.97639622378322
O           0.84483488485641    3.02730532790055    1.46921115123405
H           1.14328546457571    3.58503386995158    2.19006739717044
O          -0.19546711159650   -1.79753680335715   -2.70201682442223
H           0.40790234584061   -2.23584572582254   -1.33797502416682
H          -1.15929868279357   -1.73469206768803   -2.46492722859445
H           0.14717585857368   -0.89854535264640   -2.61577445207625
O           2.41154592118464    1.44771677170649    0.25440189817306
H           1.85949825913355    2.19696685797045    0.70358192107543
H           2.23829549305470    0.60554362876574    0.85461828750548
H           1.78571529191682    1.06935536344312   -0.50410204192396
O          -0.48149691900217    1.03508491154318    2.53883156127204
H           0.24032676592433    2.34154583206263    1.86819699589429
H          -0.82929494671610    0.45803690457402    1.82683668117188
H           0.19391486625945    0.49281467714124    2.95798081323714
N          -2.60372654108331   -1.42079179031975   -1.60716056040191
H          -3.21541311615186   -0.66702295990985   -1.89438676743055
H          -2.13795389958856   -1.13000148457482   -0.74623793439977
H          -3.18389373363259   -2.21991267061623   -1.38475842813255
