    23
        -45.35897770  Gyration_radius:  2.43195171605 Dipole_moment: 3.209
 S          -0.89716596481184   -0.30485727757336    0.01229191840105
O          -2.33794376188156    0.01409585856654    0.45311850679494
O          -0.05595693823698   -0.45033595904399    1.18322541924349
O          -0.94710162651679   -1.54306012261996   -0.77569041923780
O          -0.43928283114022    0.81417609630792   -0.83968552485432
O           2.44322026146793   -1.31357145581477   -2.08356849045036
H           2.90538847955964   -2.02288880348757   -2.53416014568739
O           1.57752495780577   -2.28556033019069    0.19194076417510
H           2.22270021434064   -1.64917115823305   -1.17053484949373
H           1.12460965621330   -1.57695318626374    0.69555647261589
H           0.86122092489065   -2.87842517811150   -0.05573958520882
O          -1.93012291847335    2.50552043875412    0.75338369992914
H          -2.35174837603082    1.01432822453098    0.62943552859581
H          -1.36499440461871    2.46936126010354    1.57097609835134
H          -1.31246005551525    2.43909690357483    0.01371698718175
O           0.11167007715797   -0.58495063234226   -2.76062522676401
H           1.10177408364801   -0.84411727780310   -2.61771707026143
H          -0.41584556855582   -1.21633742038397   -2.11052572474282
H          -0.04464494882376    0.24242864135402   -2.12727718546667
N          -0.23937920545034    1.94558968309597    2.74541417381839
H          -0.06172788797103    1.04133307254921    2.30558180953194
H          -0.60034143958862    1.76702623031097    3.67411241976969
H           0.65060728243764    2.41727241270704    2.84677043382572
