    23
        -45.35897712  Gyration_radius:  2.43189263678 Dipole_moment: 3.206
 S           0.21727014800901   -0.39295539764990    0.83601841807951
O          -0.18707896079514   -0.52483674641068    2.31598738711160
O           1.34292144568901   -1.30754914900412    0.60855400048645
O          -0.94471738731968   -0.81489696444932    0.02311515512323
O           0.58002038434744    0.98173655299425    0.55618917725259
O           1.28835039640501   -1.10099146480396   -3.02797315118828
H           1.98159536906228   -1.42809923421546   -3.60431575311814
O          -2.57384215660497    0.27777823258144    1.96627776694807
H          -2.53639441286800   -0.15369041712113    1.10290939793649
H          -1.15611213559705   -0.22311521550689    2.35994568187336
H          -2.38673164160070    1.23818450409609    1.78801772271615
O           2.43196894413565    0.46919504275341   -1.26773118467474
H           1.70569800430302   -0.41238111897184   -2.43925809490389
H           1.74771646767772    0.84727742702601   -0.67638930762184
H           2.92135687003251   -0.12731694336845   -0.69289503139748
O           0.26227684868609   -2.53802779979356   -1.20906911555764
H           0.63093408466204   -2.05134164123897   -2.04268609645292
H           0.91329835090376   -2.25791136038062   -0.43851029991838
H          -0.49393862183120   -1.90230944865319   -0.83770653053790
N          -1.62170905031117    2.67369057175407    1.26436029038851
H          -1.98929059986515    3.19013316182729    0.47507413456752
H          -0.76254080484209    2.21358206127204    0.95966751340733
H          -1.37105153069785    3.34384535780357    1.98041790897447
