    23
        -45.35897710  Gyration_radius:  2.43190495148 Dipole_moment: 3.206
 S          -0.29842999923934    0.72643045698784   -0.53269447340278
O           0.80182509733442    0.90061978109187    0.39400741748905
O          -0.03516887400445    1.55721412170698   -1.80221512708983
O          -0.42621295924501   -0.68712383902779   -0.95052772356799
O          -1.56746132722195    1.19376834776560    0.03870464412896
O          -1.96396485364980   -1.54501663676127    2.40761989919270
H          -2.59992308968904   -1.55884503387489    3.12538014721609
O          -0.61030583604522    0.68917245438086    2.62565349756971
H          -1.37200487445749   -0.75752470125150    2.56384380007883
H           0.07213269659877    0.72559877120885    1.92295055308849
H          -1.23362719258460    1.37601577154323    2.36967978904366
O          -2.63812770291540   -1.00606821021194    0.02409462085069
H          -2.45331507440124   -1.33787593970649    0.98506384539436
H          -2.47372945829704    0.02670015553508    0.07223993305868
H          -1.72943500477743   -1.15387849706422   -0.49205505840979
O           1.46603026254349   -0.17858794421034   -2.89601147868698
H           0.91041494223327   -0.84728308285512   -2.47516081344563
H           0.58299880164263    0.98922946508474   -2.37427434784569
H           2.26027927369744   -0.08722241320128   -2.30442034152581
N           3.23836184135008    0.17375679111263   -0.92767460682360
H           2.46788664808749    0.45758596370402   -0.32058891351642
H           3.89142178703977    0.94593914687548   -0.97241329563629
H           3.71035487712684   -0.60260493906098   -0.48120197673385
