    23
        -45.37367557  Gyration_radius:  2.49436119833 Dipole_moment: 4.203
 S          -1.12004652261807   -0.68302417670977   -0.32433873500232
O          -1.47410759972949   -2.15068230119668   -0.75391454530109
O          -0.90241815172520   -0.71550636009417    1.10396542713998
O           0.13583036366581   -0.34362675302844   -1.02770451631252
O          -2.20395883426940    0.18438516750624   -0.73971974344197
O           1.81828637458430    2.44410698181912    1.06825550128650
H           2.31763909311505    3.16604457990425    0.68272467675835
O          -2.72898420410260   -1.20061815219968   -2.88902392223631
H          -3.66975394481575   -1.38606342186586   -2.93157740228139
H          -2.62272972448100   -0.47351424552938   -2.23786040439670
H          -1.85426679827240   -2.05306914401409   -1.65036625771636
O           1.08949100382127   -1.57597290124251    2.52270134025766
H           0.25176083095554   -1.40218351785142    2.02351694138594
H           1.91736279030243   -0.73664787392206    1.40801641265793
H           0.95182423301894   -1.18696393574118    3.38864174260219
O          -0.31063348807769    2.22690217031760   -0.49204193166612
H          -0.10258287746963    1.35738425196533   -0.88300606104053
H          -1.24320226306121    2.14951603068054   -0.26955621426728
H           0.94677166400484    2.44569471743362    0.60237747133164
N           2.17935718375257   -0.16299072381623    0.56163382294353
H           1.37736070567613   -0.29702282022449   -0.13916059635691
H           3.06171522769187   -0.46211414838251    0.16195274271906
H           2.18528494788678    0.85596657619082    0.81448425090370
