    23
        -45.37367556  Gyration_radius:  2.49422920961 Dipole_moment: 4.202
 S          -0.42125947249872    0.75833520349854    1.03774753094965
O          -0.04140678964024    1.02659203464914   -0.36612640480756
O          -0.89949535713064   -0.59812820429843    1.17781659704244
O           0.65283246334340    1.10558904579558    1.94635961786947
O          -1.64368551765380    1.69461801492441    1.34225666775092
O           1.78881827640121   -2.15097518704961   -1.60931940557509
H           2.52659968979129   -2.12820193073540   -2.22109136689529
O           0.03840612721613    3.64220208236679    1.98630286356760
H          -0.01108240384011    3.94862236712944    2.89451657698306
H           0.52194017255881    2.78810669039008    2.01157668775807
H          -1.24136863620636    2.57518169622974    1.48434333753738
O           2.29347760410489   -0.17476327537006    0.07975994024575
H           2.26564723023323   -0.15184078422211    1.04097177047251
H           2.03052758577197   -1.53022039359994   -0.87935857997913
H           1.55823793017713    0.41291545415970   -0.17777221855488
O          -2.36701413704372   -2.07517113747902   -0.36691484815051
H          -1.95715969746622   -1.48472825526494    0.31464462138068
H          -1.34058579263609   -1.49010062339857   -1.47893278689924
H          -2.23506372883193   -2.96700598917722   -0.03916244713799
N          -0.57834364764451   -0.94543454719251   -1.96513521295585
H           0.31314542527729   -1.49996524589517   -1.95472991259267
H          -0.40490661615285   -0.08047940477370   -1.35352087131380
H          -0.84826068812613   -0.67514762067485   -2.90423215670858
