    23
        -45.37367566  Gyration_radius:  2.49432652403 Dipole_moment: 4.202
 S           1.12889826177530   -0.35883541494349   -0.64998424568864
O           2.17358928562965    0.34543590672507   -1.58628770815010
O           1.74873295456752   -1.54251182978421   -0.08928118880284
O           0.79954776731951    0.62327531774758    0.40547982458993
O          -0.03379330832931   -0.62910911708747   -1.46452773925162
O          -2.71044035788305   -0.34817556151204    1.72064647726556
H          -2.97110083534435   -0.25647756803308    2.63869728151891
O          -0.26205366435885   -1.35040942942648    1.84509294990277
H           0.13977819732976   -2.08426720026711    1.37058707126295
H           0.21829814130692   -0.57371709277117    1.50129544576358
H          -1.86813086842997   -0.86469449204814    1.73443781467285
O           4.12545405350422   -0.46813436086420    0.01579527366467
H           4.76630669848065   -1.06244860770704   -0.38083615873219
H           3.01643540732772    0.28703407151327   -1.09263595246141
H           3.32566900197591   -1.00859998684193    0.19520552220495
O          -1.91343263439159    0.92231175167132   -2.34863131271081
H          -1.87329990989599    1.42713689650606   -0.80711517219645
H          -1.12687504699693    0.34596227785511   -2.17461283998818
H          -2.60979933572616    0.32179031384973   -2.62180853805932
N          -1.60894087397141    1.56828216479048    0.20495732994391
H          -1.71605021926181    2.53491360142687    0.49124296023121
H          -0.58433216617451    1.25781106859920    0.28320613213458
H          -2.16446054861401    0.91342729071942    0.80907679291909
