    23
        -45.37014311  Gyration_radius:  2.46672654285 Dipole_moment: 3.505
 S           0.71668598470867   -1.05508631615879    0.51188599851159
O          -0.65908358437566   -1.33887633077321    0.18558458284994
O           0.96671532633879   -0.84159289308775    1.92373129479642
O           1.55744175618675   -2.29738448627459    0.04825620933468
O           1.21236670083466    0.08600981934801   -0.29622004648915
O          -2.50610179186269    1.89776719087952   -0.04874113618253
H          -3.18530229090145    2.16398751520578    0.57206628911438
O          -2.40911953595291   -0.35566278244540   -1.50059989685836
H          -1.22192384872071    0.30500527648900   -2.06871427926272
H          -1.90936492981084   -0.91856195318397   -0.86827392352943
H          -2.71286448824907    0.40377271539814   -0.96033466600027
O          -0.24201398705192    1.58640132378292    1.35933001890632
H          -0.21329295957604    0.94840713227595    2.08045229000563
H           0.42309795985794    1.24038654662326    0.73896706833400
H          -1.68182616149226    1.80263110841630    0.48084119263491
O           3.43635217607668   -1.68327950929310    1.81623701281583
H           3.58302679231700   -2.33423499053255    2.50618907631279
H           2.41434124518781   -2.19948937794934    0.51222954001358
H           2.61227540348969   -1.20826104563723    2.05928913945587
N          -0.27083963552337    0.83725421804356   -2.25827629957695
H           0.39817666024504    0.49779176306512   -1.47395642045907
H          -0.42487620541933    1.83565134158437   -2.14816312579935
H           0.11612941363850    0.62736372446206   -3.17177991895402
