    23
        -45.37367558  Gyration_radius:  2.49446325747 Dipole_moment: 4.202
 S          -0.72115554925380    0.42696145785314   -1.05894725501079
O          -0.46883000553923    1.51588380095507   -0.14294972557490
O           0.23941428744315   -0.67309374569260   -0.82611922787964
O          -2.08661768702070   -0.05740430125140   -1.04285801893018
O          -0.41157279066997    0.97531542287431   -2.49686368596236
O           0.60804011648692   -0.98323904045789    3.01593898363523
H           0.73181746188660   -1.82077382595680    3.46578291540476
O          -2.02110372880627   -0.86658090386675   -3.52391637208408
H          -2.22254728737295   -0.77172415153991   -2.56774538316335
H          -2.78720594572068   -0.52898987402746   -3.99333371798718
H          -0.82353337595775    0.32148921132098   -3.09708374395002
O          -1.26537844307251   -1.49176408960574    1.21377431395209
H          -2.06409506290526   -1.00684565016927    0.98564487786020
H          -0.71228281151518   -1.39764597416534    0.41543890234927
H          -0.19246993247495   -1.10214545194439    2.44904577619233
O           1.74179625509861    2.53532463641693    0.74805477127472
H           2.08847735007416    0.96353267761557    0.95180248829110
H           0.89677198816030    2.28474667122375    0.29596942768752
H           1.47537578659076    3.05361349794292    1.50991518760556
N           2.04939788409318   -0.09117552661440    0.94000672332933
H           1.36410056212981   -0.34708460577413    0.15439416827544
H           1.62009665537000   -0.43826236311623    1.83315662142387
H           2.96150426261337   -0.50013789191312    0.77089197313885
