    23
        -45.37020843  Gyration_radius:  2.46795972988 Dipole_moment: 3.290
 S           1.07042354695968   -0.53456831359751    0.57708422644459
O           0.02889487630040   -1.21332465886492   -0.23145863895683
O           2.24960289906370   -0.25047108482291   -0.21722284338784
O           0.51263172964637    0.61135179125879    1.25192641055609
O           1.47058844542309   -1.56349478155325    1.69464828287461
O          -1.44438667727495    2.61139421461455   -1.23266906476762
H          -1.04130066045147    3.46882739623364   -1.37623680597684
O           3.25550060935811   -2.64467808295902    0.05999818543819
H           4.17149205006181   -2.57912273731996    0.33927241328294
H           2.07710917247988   -2.18771434745427    1.24541169843248
H           3.01189924524414   -1.76030676705047   -0.28931079762860
O           0.39389945694558    0.79493011508204   -1.95621756699969
H          -0.78835883228258    1.94873322167962   -1.54848098930093
H           1.29775510670742    0.92043917466226   -1.64426380980093
H           0.14473453573657   -0.05216247676189   -1.54986504106692
O          -1.86150912785010    1.72414396442226    1.23873338490548
H          -2.28237596107531    0.41112873669771    0.78562762782430
H          -0.93533721225905    1.46126443465681    1.43836343398232
H          -1.79335240144398    2.20785368283317    0.38214047402048
N          -2.39810167674841   -0.61352081837718    0.36158263042855
H          -2.81036501476752   -1.25146798945627    1.03362344190525
H          -1.38307214677571   -0.92311484450505    0.12968340918973
H          -2.94637194301974   -0.58611983957598   -0.49237005138256
