    23
        -45.37367553  Gyration_radius:  2.49370049354 Dipole_moment: 4.198
 S          -1.13607507292988   -0.14557635133540   -0.71225945195052
O          -1.28848189807514   -0.69182721347870    0.61700588264381
O          -1.03468085839739   -1.14509893562240   -1.75628153220913
O          -2.41552393414544    0.72196264377524   -0.98566055956407
O           0.00803393928233    0.79046359731073   -0.75472163531613
O           2.79960006387867   -0.82932268546816    1.38484295260391
H           3.73131051335740   -0.75626816892598    1.17091919232972
O          -2.04406960179155    0.41056963431209   -3.59384002245184
H          -2.74449662501143   -0.05195399068867   -4.05934882665053
H          -2.40691229763660    0.86405952673739   -1.95383681849355
H          -1.52966114976416   -0.27806678954086   -3.11951644295466
O          -1.04664724128799    0.40260448894534    2.95443914224845
H           0.30791063451431    0.97247945006264    2.26727476883954
H          -1.31397534480245    0.00680193328465    2.08657624325715
H          -0.98328775448738   -0.33836591264313    3.56026903240859
O           1.64201776370571   -1.30485748675592   -0.95013076918349
H           2.36411053157777   -1.16224257688355    0.56281219117146
H           0.98381497386132   -1.95843501105194   -1.20427600575424
H           1.16192255532783   -0.45980541744202   -1.03612641309689
N           1.06953680731832    1.20887508527261    1.57574337352240
H           0.61813423279508    1.12007014041337    0.60575148072960
H           1.82391185449458    0.47997135314611    1.61997464046756
H           1.43350790829389    2.14396270623704    1.72038958761142
