    23
        -45.37020839  Gyration_radius:  2.46757525837 Dipole_moment: 3.289
 S          -0.72053515533076    0.79957653362317   -0.78009286360658
O          -0.07450659000803   -0.29932882131222   -1.45445511698588
O          -0.94013128484510    0.46932002786784    0.64890374608248
O          -0.04732637688011    2.07535357999143   -0.92676727254643
O          -2.15563272892346    0.92990691330263   -1.40553557986975
O           2.83903035941672   -1.40739053842661    0.61634883475296
H           3.66412010627095   -1.24089701912860    0.15830837375506
O          -2.23634092715550    3.47907474061174   -0.68240669889408
H          -1.30211796833049    3.17916806260817   -0.65607717318690
H          -2.29282628649121    4.11588242210184   -1.39836608868515
H          -2.45942379372368    1.82062426719001   -1.13442562507613
O           1.66665688932764    0.98677909632766    0.92693049735631
H           2.43670935358127   -0.52329477927618    0.77665009653567
H           1.64702140461526    1.57875711773951    0.16585204509791
H           0.72272143177692    0.83152994717425    1.09939713781678
O           0.83506518259540   -2.62035497103174   -0.64129009682531
H          -0.09321972708665   -2.40466424733114    0.45334428019477
H           0.53282634414526   -1.85057347046267   -1.17305145165431
H           1.68055483601829   -2.31430614302412   -0.23643462785801
N          -0.77724544611749   -2.02399260386744    1.24733677266265
H          -0.34623901951582   -2.11330999633062    2.16217236127275
H          -1.67470892960431   -2.49591347551166    1.22479082337822
H          -0.90445167373280   -0.97194661281798    1.00886761626549
