    23
        -45.37020855  Gyration_radius:  2.46756483023 Dipole_moment: 3.293
 S           0.39528990503949    1.15239092911604   -0.53058275190133
O           1.61883544601171    1.79575287750563   -1.27695661079528
O           0.81584569455442    0.92298316467841    0.82962092428259
O          -0.73754084133358    2.04670899955743   -0.66791689932557
O           0.14704181314696   -0.13827930002744   -1.21754725055102
O          -1.52150782377682   -1.54164482057682    2.39700749723515
H          -2.01702371965678   -1.13120950252256    3.10705089920147
O           1.11769529684398   -1.24487333322794    2.27363596587417
H           1.21642883778830   -1.88694185305235    0.97571225659563
H           1.12629904317534   -0.32587597897090    1.92423409626024
H           0.17070367538676   -1.40749694247507    2.49545058342727
O          -0.03463505856268    2.88460845450415   -3.04005516133754
H          -0.55434763174228    2.61920116999629   -2.25085256424546
H          -0.05181154961957    3.84406378061217   -3.06135782553517
H           1.23325343669394    2.17764736810237   -2.09221065061606
O          -2.13457559848828   -0.16810604787434    0.17377378178454
H          -1.78895235743665   -1.07115693427726    1.57464334142265
H          -2.13591188652469    0.79482165291473    0.22581522731971
H          -1.43897168611013   -0.34455475523770   -0.48179093179410
N           1.17181368315007   -2.20752565167240   -0.09120102331099
H           0.77554624406732   -1.34178242337881   -0.61401705136208
H           0.53478616371959   -2.99010629899665   -0.20224532342436
H           2.09173889366228   -2.43862456486204   -0.45021052932494
