    23
        -45.37367512  Gyration_radius:  2.49232607951 Dipole_moment: 4.204
 S           0.07364650608073   -0.18492097228530    1.32836725513596
O          -0.20534592626216    0.97641658461977    0.45639432610779
O           0.98667133465277    0.35281345785229    2.48691540863198
O          -1.14433540472363   -0.70471363774409    1.91586406321219
O           0.85511161126842   -1.17045253419244    0.61654123017867
O          -0.96231835867812   -0.49587958106076   -3.04356231443589
H          -1.61119200104979   -0.12043642806883   -3.64128787331301
O          -1.18180114583733    1.05538994630680    3.84459637409526
H          -1.44077058854932    0.40995423925308    3.15167658848668
H          -1.30462383429159    0.60866053162693    4.68520121523457
H           0.36718434932748    0.81287113504432    3.08877757984917
O          -2.15945817369638   -0.43436730720456   -0.68052093179687
H          -2.24253900989997   -1.10945599227938   -0.00057497084966
H          -1.59025100096193    0.23710746515987   -0.25995824900906
H          -1.43733601242829   -0.63196412696643   -2.18807282123914
O           2.84365823748866   -0.90444407826378   -1.02456134458769
H           2.91792910486105   -1.76117310969023   -1.44969039176338
H           1.83625540987646    0.19744251864618   -1.66014899357310
H           2.21040344277509   -1.04059618122093   -0.27493620883085
N           1.01713396104299    0.84156199154655   -1.82836243943723
H           0.54993304310470    0.97300841993932   -0.87079103419017
H           0.31148627464521    0.36056630582851   -2.43912727376976
H           1.31055819128307    1.73261134298158   -2.21273920403815
