    23
        -45.37367510  Gyration_radius:  2.49491492494 Dipole_moment: 4.203
 S          -0.88514105808920    0.01362763359264    1.02614349810022
O          -0.85059007749681    0.59283672886906   -0.33417065233204
O          -2.36829564424076   -0.44066580047235    1.26602911330901
O          -0.07592224300136   -1.18224983505531    1.08311898255406
O          -0.54803692281579    1.00639160876108    2.02648757821880
O           2.82154464267110    0.32010379951021   -1.53106206584948
H           3.24811437149734    0.97733610741885   -2.08349280105725
O           0.30268782751753   -3.09907267559186   -0.62109795199400
H           1.09513169566184   -3.54107874254517   -0.30991951986665
H           0.04630947682545   -2.48113093105111    0.10934778999363
H           0.45430888611496   -1.83446939795507   -1.62631735756504
O          -2.95715039892990    2.00808987025491    2.09984502177429
H          -3.25152056588008    2.07538116432180    3.01090963907574
H          -1.98319919156352    1.88929269288824    2.13527302207470
H          -2.84344049590946    0.39080070420313    1.46651180694512
O           1.47778309132783    1.74582097427060    0.25031311833395
H           0.57673703391516    1.51416212162468   -0.04430401245987
H           1.42468757955487    1.65764093813738    1.20670937421032
H           2.44360907942482    0.82042285191599   -0.76709495491138
N           0.46820286593359   -0.86028586040815   -2.03223073380172
H           1.43884096238924   -0.46481215413908   -1.96931075766202
H          -0.14448370067279   -0.26600079125548   -1.38125338462125
H           0.10982278575324   -0.84214101727566   -2.98043473246845
