    23
        -45.37367500  Gyration_radius:  2.49517566036 Dipole_moment: 4.203
 S           0.20533055792757   -1.29991029672379   -0.33020147240806
O          -0.77440473228631   -1.78209884110508   -1.28292508856917
O           0.77851132160725   -0.00674505908042   -0.76203524464455
O          -0.28519178184645   -1.20385707418330    1.02567465217990
O           1.40172357328995   -2.31551225523774   -0.29990482420758
O          -1.61721467494794    2.73548347810171    0.55480413045735
H          -1.80541484229151    3.54648906170730    0.07944761791238
O           0.61869359879276    0.03893772284705    3.11377666250188
H          -0.12874970192951    0.07024954404553    3.71429200831675
H           0.34540263473553   -0.58054493813940    2.39082095320598
H           0.79369754960153    1.22503436504968    2.02129118450413
O          -1.67779097254123    0.86134785290116   -1.31475834825815
H          -0.73043323150136    0.62760224603979   -1.30124494886281
H          -2.11439643990169    0.00426903432966   -1.32531644990731
H          -1.78875587280801    2.00510159626082   -0.08852925279095
O           1.01980041157501   -2.80345459044475   -2.87949579268256
H           0.78057062028850   -3.70659457051605   -3.09930639112452
H           0.20896804139742   -2.38662189080830   -2.51504783359185
H           1.54412164365110   -2.54434332247579   -1.24050156312272
N           0.82066048250315    1.77723471901626    1.12207099002524
H           0.88760423737462    1.04903302462583    0.33623587460862
H           1.61029153440599    2.41240252993875    1.09361130189006
H          -0.09302397711342    2.27649766384440    0.98724184457530
