    23
        -45.37020848  Gyration_radius:  2.46747699037 Dipole_moment: 3.289
 S          -0.08876685982582   -1.26555547504035   -0.39577194652058
O           0.79144515218435   -2.42510734522164   -0.98626717021758
O           0.34015791875228   -1.07510405577283    0.96783674511362
O           0.23565900175271   -0.06903761953639   -1.20976270758820
O          -1.48232022506540   -1.63790844896261   -0.54211179959387
O          -0.84686087489821    2.27810330064834    2.12649449052771
H          -1.49253775302164    2.18239796311216    2.82802302844276
O          -1.88474308547422    1.03014536446515   -0.01103274937545
H          -1.25239725491909    1.86688344205123    1.32917363204294
H          -1.15406024965420    0.83799083662626   -0.62258100551677
H          -2.28018455833846    0.16107158575118    0.12436124810159
O           1.44495803823723    0.93541761223475    2.23793792913722
H           1.09169357510300    0.05745675746751    1.97138275482682
H           1.84365138426164    1.33551936063978    0.90103826974671
H           0.63871921542065    1.48787271432890    2.36951137365621
O          -1.09907634323273   -2.94658878039979   -2.77003375106592
H          -1.50529777997216   -3.81406470829365   -2.70864177740471
H          -1.49305619018932   -2.40840278285835   -2.04998392279635
H           0.31219036523122   -2.70794977183737   -1.79217641145814
N           1.97199399412185    1.52671897337987   -0.18992573797929
H           2.91874003732792    1.32821405395956   -0.49461820226778
H           1.71299500542207    2.48150470151246   -0.41771700300574
H           1.27709749674995    0.84042230171013   -0.66513526675072
