    23
        -45.37020850  Gyration_radius:  2.46768975029 Dipole_moment: 3.296
 S          -1.08415553087543    0.76833743297652    0.04714899544920
O          -1.33169922123982   -0.65068177790063    0.11625317233929
O           0.20128371503838    1.03385960420212   -0.64319591800622
O          -2.19356580743967    1.37363650096462   -0.88585434894349
O          -1.14587041917086    1.45294109018049    1.32371903845285
O           1.77524681389622   -2.33487322752885    1.35193328856141
H           1.63031409490770   -2.73395674480630    2.21095855975669
O          -1.88640032628779    3.73228167902462    0.28476920635756
H          -2.65158944052321    4.06829037199099    0.75688790146703
H          -1.48846573675026    3.04570111069344    0.86237976222169
H          -2.16802504135744    2.33533498341303   -0.70245003215230
O           1.32326296419091    0.29193798253150    1.66602371219374
H           1.66091616529817   -1.36571616494145    1.48213457188798
H           1.16514443623551    0.66963161989419    0.78448894673915
H           0.53512933172516    0.55817267392990    2.15383146085487
O           0.04947056743212   -2.75217488626801   -0.62720376263630
H          -0.65066543252032   -2.13419691176241   -0.31968985794659
H           0.69905542280345   -1.79783700820032   -1.50707328310100
H           0.68787890923101   -2.78352692383371    0.12366102570150
N           1.13670687402514   -0.91597234088692   -2.03031332006294
H           0.73431194867371   -0.06076345953540   -1.49502251256639
H           0.85305494044744   -0.88102827195388   -3.00337045340152
H           2.14866077237220   -0.91939731224492   -1.95001616310789
