    23
        -45.35981436  Gyration_radius:  2.32612260655 Dipole_moment: 5.669
 S          -0.55331348261749    1.69099539797946   -1.20192286200981
O          -0.51568284972528    2.76727029334373   -2.11675616604983
O          -1.98789601724833    1.10617468597519   -1.05487772818621
O           0.22735388121234    0.48700214303810   -1.80672855667325
O          -0.04463209404541    1.93629161600878    0.12779359046555
O          -0.70787188477912   -1.30839356710101    1.69938114607164
H          -0.60174520116386   -1.98299962086753    2.37089857735378
O          -2.15458108285801    0.97739308606287    1.48035041795786
H          -1.41468343837463    1.59914355308503    1.53585933045935
H          -2.18760775961350    1.05717102322363   -0.06060838914411
H          -1.77625371747894    0.10294573334393    1.70090789294405
O           1.42237381098013    0.08964626902776    1.44908454032243
H           1.03045749228648    0.88828539306299    1.05235203923997
H           0.16754489984949   -0.79641329116837    1.66389219830959
H           1.98667576190731   -0.29535628242133    0.73759960783289
O          -1.02160305916653   -1.58056086983633   -0.93609458084394
H          -1.93064282930260   -1.32584497376357   -1.11724136759164
H          -0.20722134519861   -0.36600088948829   -1.48858498356516
H          -0.92064229833864   -1.59215196643229    0.04278248424577
N           2.72120679424580   -0.82000843848288   -0.76122125865291
H           2.13816812051805   -0.30078549541990   -1.41036626357675
H           2.64935684910809   -1.80060098233581   -1.00205767493458
H           3.68123946979480   -0.53320281682636   -0.90444202396840
