    23
        -45.37367468  Gyration_radius:  2.49245276554 Dipole_moment: 4.201
 S          -0.24397913749159    0.81897301700587    1.03689511886526
O           0.42097294194670    0.97334417503190   -0.27489198230767
O          -1.07986665744140    2.12991317613020    1.25549601445561
O          -1.19450263156918   -0.26880696464205    0.99281625495036
O           0.72625842988237    0.71623535181383    2.10788678151932
O           1.07018165972811   -2.62059544049459   -1.56061629975845
H           1.85053818964802   -2.86492334593921   -2.06125292201003
O           1.06166356832265    3.29880311712414    2.29802324961315
H           0.98104319846626    3.56766772443517    3.21583194749594
H           1.19833352391465    2.32665473824909    2.30878267481744
H          -0.41730807652649    2.79522715786151    1.53114711824926
O           2.01052651324965   -1.06654929961129    0.36872986962314
H           1.84360665346367   -1.06726134683553    1.31583003466394
H           1.40694114759051   -2.17403423080268   -0.74629505808879
H           1.60977117296765   -0.22802372048618    0.07192541142432
O          -2.87343388324652   -0.98087771461703   -0.84899734933799
H          -3.14752098805384   -1.86455952816365   -0.59588539249133
H          -2.37247155386908   -0.63051113012469   -0.06936476174902
H          -1.54914512737696   -0.79814114997653   -1.76889208567333
N          -0.57367540882440   -0.57476350140962   -2.10432240390674
H          -0.17935460307942    0.13209900784949   -1.39906436162495
H          -0.57630310837483   -0.18749632090375   -3.04123736612265
H           0.02772415660264   -1.43237377144340   -2.03254450254167
