    23
        -45.37367505  Gyration_radius:  2.49423800708 Dipole_moment: 4.207
 S          -1.20024241091944   -0.41144517672039   -0.47710396323381
O           0.15736118347054   -0.99485737331716   -0.41628118533962
O          -2.19357602142464   -1.59697815648927   -0.20960475290690
O          -1.38959457029148    0.53282927035996    0.60021604154940
O          -1.48064538474439    0.12612162777511   -1.79330655924280
O           2.54559550314970    1.92737584927679    0.44631206576604
H           3.43702743434338    2.00288845950241    0.10159409402118
O          -0.60876258107810    0.52047502155778    3.07251763109332
H          -1.06486102317566    0.47226327274588    2.19460826126808
H           0.78041428388666    0.07104022248827    2.36607997050351
H          -0.70791473348077    1.43093190584917    3.35793580589005
O           1.10640629437224    1.16980857535222   -1.64346846288918
H           0.88193345138796    0.27226174400626   -1.33308266117001
H           0.26705311830581    1.50281588914517   -1.97499364052693
H           1.96558142628395    1.80008219901911   -0.34371320595356
O          -2.13095532529043   -2.19540644631385   -2.79352087010376
H          -2.21915283920073   -2.08298577777431   -1.05840227709096
H          -2.96863164876957   -2.12508973714806   -3.25672650702060
H          -1.80611118433202   -1.27648732417940   -2.67493199069756
N           1.50846088810045   -0.22470203181272    1.66120269673174
H           2.01772672827481    0.62113546011994    1.30401653971824
H           0.96107815775410   -0.62347168327347    0.82844021476862
H           2.14180924334157   -0.91860580039940    2.04221276482857
