    23
        -45.37367519  Gyration_radius:  2.49354295051 Dipole_moment: 4.196
 S           0.56228355826029    1.22544656081439   -0.02924763756644
O           2.02568038683679    1.79170594529516   -0.07954419982551
O           0.33783625053950    0.79261378330387    1.33123165713548
O          -0.34157752416403    2.26507752174993   -0.47800205899381
O           0.54196724221001    0.06593455458115   -0.94687031210251
O          -2.32334980801273   -2.22990820598163    0.28189448609916
H          -2.87236881200932   -2.73484998722647   -0.32035535401676
O           1.19128192617974   -1.28225298362938    2.63021573861711
H           0.99666913949740   -0.40249407069445    2.21858012542826
H           0.62381886746790   -1.32977022875836    3.40215864771420
H           0.71366279233460   -2.01666987617067    1.26448321140703
O           1.36245800677660    3.25838172316493   -2.18861836438815
H           1.42340335580812    4.20867935636456   -2.06876083295425
H           2.06021710938957    2.29473910441664   -0.91813624594806
H           0.54081479688787    2.97710889151092   -1.73072549685120
O          -2.12081631384683    0.14041131597001   -0.88379652489583
H          -2.21820917464155    1.02914970462143   -0.52945990028384
H          -1.17410413357151    0.09478775688191   -1.11509755635483
H          -2.36148175226175   -1.29783551037898   -0.04347059536093
N           0.35665447062742   -2.20764567910562    0.28970243555590
H          -0.68051576478497   -2.36918154872596    0.32017386564764
H           0.85006779125091   -2.97715535592477   -0.14864823155036
H           0.50560759927986   -1.29627277236468   -0.25770685617414
