    23
        -45.37020856  Gyration_radius:  2.46798613954 Dipole_moment: 3.301
 S          -0.93187153199314   -0.74988435915834    0.57804827668158
O          -1.17381944009174   -2.21959785084362    1.07784617590128
O           0.39825085085398   -0.36553909298977    1.10951627143684
O          -0.89924290456172   -0.80437804276608   -0.86261907736480
O          -1.97888256809547    0.09054750933763    1.12507007520316
O           0.74060905864378    2.30906056399045   -2.13462593606802
H           0.12424785305268    2.84913936814540   -2.63128610229461
O          -0.27463347195649    2.10414303566626    0.34170900547320
H          -1.21212134003179    1.89688937218384    0.43108618946254
H           0.15313838329378    1.34404906706622    0.77080008642684
H           0.39244453528265    2.27934527033601   -1.21427991946934
O          -2.19377072422284   -1.28135866440152    3.33756504597940
H          -3.11662657970005   -1.49093907570372    3.49808924176884
H          -1.45669240159123   -2.11692123663819    2.00990912553413
H          -2.18897942585692   -0.55649312140640    2.67578018350589
O           0.96163054287998   -0.29239416963761   -2.63782640454410
H           0.14643516653746   -0.58304547567117   -2.17135250258604
H           0.90011496348211    0.69173388387993   -2.63656434978570
H           1.85164917260009   -0.51777029405079   -1.51329443164385
N           2.36058373178153   -0.62930016981054   -0.52769008683522
H           1.55566079429164   -0.56053987238796    0.19843329914455
H           3.01686259146371    0.13053753083490   -0.37743366706856
H           2.82501275522993   -1.52728417503417   -0.44688050918079
