    23
        -45.37020858  Gyration_radius:  2.46806251245 Dipole_moment: 3.296
 S          -0.93868184334999    0.60730548225776   -0.71732159661273
O          -1.38237035082011    2.04219170131252   -1.17807328846943
O          -1.66202887999896   -0.36564306588553   -1.51238392104207
O           0.51900126874375    0.54045060203218   -0.98197010162645
O          -1.19485495891287    0.53164364203605    0.69987077273589
O           0.78025358224237   -2.31389152509893    2.11529100731968
H           0.20244992541559   -3.00457441340515    2.44292413597253
O          -1.73378156520035    1.13973514970754   -3.64586181125030
H          -2.63212119497756    1.18019935119407   -3.98144443702039
H          -1.45441492484122    1.97411372408613   -2.15240823656317
H          -1.70367713603137    0.37082330934969   -3.03655929640150
O           0.35624523271500    0.22245699816424    2.79163556794580
H           0.50205703289903   -0.75045068861607    2.72493024052484
H           1.37847367987558    0.72064309165703    1.88934281860292
H          -0.39677965949620    0.39321552151856    2.18307148892562
O           0.24388627797215   -2.07436306249732   -0.50381988073820
H           0.61894653719115   -2.26482940309609    1.14531824217480
H          -0.68122079022059   -2.04528012632373   -0.77443240488037
H           0.57762993230351   -1.20861850825833   -0.79343853389452
N           2.03232879130126    1.02125817562236    1.03781231942574
H           2.30600888900511    1.99558600244540    1.10361350359488
H           1.41379414177439    0.86775918582292    0.15820997927165
H           2.84885602242051    0.42026883623249    0.98569343177836
