    23
        -45.37367567  Gyration_radius:  2.4935713331 Dipole_moment: 4.200
 S           1.29350655302914    0.05840486433059    0.38267068038694
O           2.67611494192244   -0.35630318211430   -0.23422434241753
O           0.67488532583113   -1.15895748783669    0.85571220423344
O           1.53615879671806    1.04216340379947    1.41848434270170
O           0.50753346014037    0.63549802382409   -0.72922100486776
O          -3.21302726380351    0.20355098657312    0.25184756293497
H          -3.88868701554366    0.84758012378708    0.03330246549844
O          -1.16617988014988    1.67584179507273    1.06356370167164
H          -2.49817970226130    0.71300908419775    0.70550219030065
H          -0.59751865277129    1.58996502609968    1.83448657060704
H          -0.56308626564494    1.48775904215847    0.31997377872777
O           3.57311032800530    2.10593986835105    0.17951422598281
H           4.31522969328311    2.18088581756973    0.78353857361556
H           3.16649559284491    0.48676890778224   -0.31298530403491
H           2.77884525410173    1.96289441843366    0.73856583317437
O          -0.48693675895098   -3.09885035457132   -0.41256331814558
H          -0.97407576613211   -3.56916180389590    0.26697692796154
H          -1.19994793383792   -1.84603464507288   -1.15713610601940
H           0.09830683224772   -2.46752134219257    0.07737416602940
N          -1.46715179307174   -0.87474238680917   -1.47225974964376
H          -0.62164075285357   -0.25331875493930   -1.24545477780472
H          -2.26206016860337   -0.52010747234744   -0.88502285970737
H          -1.68169483436879   -0.84526394204845   -2.46264577110916
