    23
        -45.37367565  Gyration_radius:  2.4941188321 Dipole_moment: 4.203
 S           0.38025478598129   -0.63236160587433   -1.13067572813057
O           1.01889814941313    0.33331621615529   -0.21051833738920
O           0.81818057662555   -0.20730709111600   -2.57693587109610
O           0.85721438212649   -1.97933506466214   -0.89027555640828
O          -1.05764293695393   -0.49638715709081   -1.08195592374192
O          -1.15229093899970    0.35309755379158    2.99547433264504
H          -0.78975753545468    0.45688088522415    3.87694677469121
O          -2.58052823477665    1.59440045783710   -0.90583506538544
H          -2.03797804088178    0.80148258945896   -1.14678725285502
H          -3.43683733463210    1.24518362737071   -0.65109397606026
H          -1.50741373832906    1.96480991076278    0.25375678016088
O           0.51366408441365   -1.32931052205291    1.80828084750107
H           0.33993705015131   -2.11649686958794    1.28358013806332
H           0.89122196193954   -0.70754189831204    1.15790596647568
H          -0.64306746848525   -0.38744997552887    2.58469479267320
O           3.02173590611996   -1.66099646378121   -2.31427533481340
H           2.37082646557531   -1.95273751299467   -1.63966421239755
H           3.11181836816969   -2.39029410539275   -2.93172366609059
H           1.73356561439339   -0.54318949589641   -2.65903281625461
N          -0.67394082270665    1.95565761115284    0.90117065384347
H          -0.32178441699055    2.89017427939678    1.07573505861591
H           0.06725812212657    1.35313646697383    0.41134152078095
H          -0.92333400873405    1.45526816411926    1.78988686532284
