    23
        -45.35981431  Gyration_radius:  2.32617208881 Dipole_moment: 5.672
 S          -0.64183519779403    1.77699566049341   -1.02081811743580
O           0.21420435030710    2.49813825672499    0.06034748079232
O          -1.63750323668700    0.98790398233436   -0.33300650201494
O          -1.09983427790707    2.67338161145289   -2.01247392877211
O           0.39363535718322    0.80463937690845   -1.65888397586365
O           0.48143978741482   -0.82528702084299    2.04689781818208
H           0.68087796022861   -1.52431804675063    2.67046834276427
O          -0.84070122819268    1.54194389897386    2.16867834138699
H          -1.60789726701866    1.28372159070465    1.63778660720686
H          -0.34585134728445    0.71397717471435    2.32999398448865
H          -0.15871499364220    2.22533510537054    0.96439017581218
O           2.06311512614770    0.32498140847608    0.23205079557174
H           1.57309933409459   -0.14901009877530    0.94177193722242
H           1.07678252910853    0.56217751265390   -0.95737165434798
H           2.22422843923799    1.21592473391396    0.55505718443428
O          -1.20932794523274   -1.60749063057795    0.29058034114146
H          -0.72810465932723   -1.94855005655258   -0.49995610019245
H          -0.19435109687518   -1.20625608288787    1.39274285690635
H          -1.55348507626246   -0.73814243934901    0.01746587742067
N           0.19176688467782   -2.17559291434256   -1.97092620912529
H          -0.27282352764105   -2.69553559725862   -2.70458282343754
H           1.13499557563840   -2.53286010579125   -1.88467289966492
H           0.25628448982879   -1.20607731958661   -2.26553954247334
