    23
        -45.37014322  Gyration_radius:  2.46657992593 Dipole_moment: 3.512
 S          -0.49941576324178   -0.51620562853480    1.17298246944102
O          -0.97206935006327   -0.75918930101065   -0.21212554961828
O          -0.67939095339244   -1.88199898999842    1.92623368463243
O           0.91250352772529   -0.22269004358084    1.17540742772696
O          -1.31995987463770    0.47757949140854    1.83662998792560
O           1.62794964265008    2.13438428305192   -1.62934838405819
H           1.90320099364577    3.04332304480173   -1.50389805220427
O           2.78522469209114   -0.08111736059772   -0.65370500392096
H           2.27851989198616   -0.15680980623189    0.18537218353953
H           1.76153622312527   -0.72719406099100   -1.49433469439675
H           2.61486399936353    0.83508582556680   -0.95720172445211
O          -3.17924764619468   -1.22419955675081    2.51892003883631
H          -1.63407093585757   -1.91785960953746    2.14176412739466
H          -3.37015717466545   -1.13141663855000    3.45499127020868
H          -2.69680080619707   -0.41049844062543    2.25634086231072
O          -0.78951181797050    1.88575791577792   -0.48965434498572
H          -0.89436252206591    2.06689552408939    0.45057303336945
H           0.73654259073583    2.06554503943452   -1.21749046836780
H          -1.02889729814638    0.94479763267084   -0.55583658982182
N           0.84031831128745   -1.05094632015148   -2.01328426145694
H           0.63064663819142   -0.38753187223266   -2.75403084711303
H           0.06140647593508   -0.99142598967009   -1.25973059544723
H           0.91117116564843   -1.99428514831605   -2.37857455948095
