    23
        -45.37367523  Gyration_radius:  2.49292416659 Dipole_moment: 4.200
 S          -1.06837697519784    0.27358559333291    0.77033293319259
O          -0.30936818525805    1.01826938213881   -0.25742968354281
O          -0.72425244802517    0.72252973360233    2.10419026592302
O          -2.58168013035290    0.60504915102591    0.51597941780160
O          -0.92219428616436   -1.15000439479920    0.56877105198545
O           3.01210890825542   -0.91503342496758   -0.73149628508538
H           3.84890486833155   -0.48209462619279   -0.90929866702853
O          -2.34244701684768    2.77025296032211    2.03026810510026
H          -2.70055664477772    1.49781607611517    0.89869614458632
H          -2.88278500688478    2.78310625589666    2.82334750261964
H          -1.59023748211771    2.16906013155317    2.22149453666549
O           1.90714084747417    0.58103871914138    1.15540748596765
H           1.48561709810088    0.33736192600023    1.98479200131472
H           2.65134764458555   -0.47333435792275    0.07524039898474
H           1.16952362762284    0.93972930569429    0.62709011231854
O          -0.89595714815660   -2.56771727793326   -1.60108879428402
H          -1.07586754307431   -2.07757131342862   -0.75920108332776
H           0.13771633894524   -1.39960509825286   -2.04825875174186
H          -0.54629272613639   -3.41800408231358   -1.32740998752055
N           0.72431581583152   -0.52241202344980   -2.07144770469816
H           0.25699277357157    0.15703698494985   -1.38407849982283
H           0.76784222056125   -0.12206875747398   -3.00182687720071
H           1.67850546949895   -0.72699087297457   -1.68407363220993
