    23
        -45.37014299  Gyration_radius:  2.46690404101 Dipole_moment: 3.501
 S          -1.35278543915573   -0.19393109568446    0.13483676636118
O          -0.64975763620823    0.87771836785799   -0.61228955256069
O          -0.54501415769340   -1.38792714526384    0.17534217479265
O          -1.79202047124921    0.27765770962974    1.43324966254474
O          -2.62581958175146   -0.53745258546830   -0.71751613681170
O           2.97563308090782   -0.40865498209986    0.93018271089460
H           3.42020310644318   -0.63089419724569    1.74910196838759
O          -3.97124401649146    1.38594909644173    0.51620072428225
H          -4.72221876819169    1.09395744824158    1.03780889400168
H          -3.17205008930545    1.17561450774380    1.04620110858615
H          -3.26234660536391    0.17596925521624   -0.50510284413523
O           1.78878165779624   -2.08616074512069   -0.79320348054209
H           1.63324386520758   -0.84799147087123   -1.57495001854815
H           2.35223697820961   -1.70399701934192   -0.08790008914639
H           0.88205698487842   -2.07162580048865   -0.41352610855885
O           0.85053883433203    1.09708607605904    1.58059920805540
H           2.20950246081145    0.15416768106472    1.18562833626069
H           0.35907307689672    1.25219005592091    0.75513684652720
H           0.17515931536896    0.73920687565280    2.16683599423529
N           1.43123805382216    0.17334101817221   -1.94906368550226
H           2.18987669508502    0.78526349697972   -1.66147002111879
H           0.52227535157245    0.48022700810489   -1.44140833781971
H           1.30343730407962    0.20028644451870   -2.95469410019445
