    23
        -45.37020851  Gyration_radius:  2.4682229638 Dipole_moment: 3.296
 S           1.18676516154157   -0.02351051441690    0.59660631557875
O           2.58202206837384    0.69753316147053    0.55640417102140
O           1.32619368894657   -1.23266199105347    1.38425259738767
O           0.24454452207761    0.93099687569216    1.12662879416961
O           0.86299836448585   -0.33712368091174   -0.81629765556348
O          -3.21437348490355   -0.19436047388760    0.25804008852579
H          -3.71174325836258   -0.42255434492202    1.04474458878608
O          -1.87946066567850    2.10170102509678    0.12977979600468
H          -1.25900998188326    1.76231585978779   -1.13804698316056
H          -2.51873518058300    1.35796616363446    0.23201818207020
H          -1.11248094690612    1.83490893640535    0.68402985820721
O           3.79999157551171   -1.65447643021576    0.65969131481045
H           3.23017730695207   -0.03036864106801    0.45954110516558
H           4.34085400510828   -1.81139229086535    1.43696644635935
H           2.86881036606686   -1.77572834443957    0.94541583788965
O          -1.09219435975616   -1.83790854247245    0.21626121780192
H          -0.43000931222259   -1.44566275809937   -0.37755323882129
H          -0.59680734602333   -1.95873751890709    1.03465138172545
H          -2.46614364888542   -0.83281023483676    0.21760060138068
N          -0.68695774621546    1.33835503452389   -1.99592959765283
H          -1.30546778321197    0.82875803460696   -2.61920087370661
H           0.01217272148823    0.64633799973502   -1.53540115409537
H          -0.18114606572969    2.05842268460481   -2.50020281317788
