    23
        -45.37367550  Gyration_radius:  2.49276673167 Dipole_moment: 4.205
 S          -0.86201701498063    0.47657913334979    0.92084229687551
O          -0.25542363863471    1.40810686038271    1.85011705000193
O          -0.54441240361612   -0.90930650193553    1.17971520382832
O          -2.42178405270120    0.60522698590998    1.04467490007425
O          -0.53357394054448    0.82609347293193   -0.47797115836007
O           2.82105708974549   -0.94337964838707   -1.25720864413510
H           3.49803236169887   -0.56111577378944   -1.81827517490344
O          -2.14245624283465    3.19089370355382    1.56959763189704
H          -2.57875831376893    1.56868443830278    1.11218428093551
H          -2.44968167215470    3.47444387132433    2.43353317792508
H          -1.28060788519127    2.74504328170636    1.71861180394008
O           2.01737719499046    1.08342383311705    0.24782444633415
H           1.11747505385067    1.17305814153459   -0.11819405750828
H           1.87548382427252    1.14340735342479    1.19718522175436
H           2.61655608264973   -0.25300097050031   -0.58067004323984
O          -0.84339832303292   -3.03272099372338   -0.27714270007031
H          -0.17534348503164   -2.05525812986068   -1.38636968946982
H          -0.29252190960987   -3.69303649770515    0.14802631372416
H          -0.87959360039291   -2.27525880262576    0.36013318201847
N           0.22944333683986   -1.21690709617022   -1.88392743848639
H          -0.14772576027861   -0.35891439589205   -1.36047841907640
H          -0.04021195979522   -1.19144335955617   -2.86087803167216
H           1.27208523847058   -1.20461889537968   -1.76133013228723
