    23
        -45.37367530  Gyration_radius:  2.49479977616 Dipole_moment: 4.198
 S           0.30166528794657    1.24709925814957    0.43791437510101
O           0.50499238338204    2.18184692033716   -0.65046842662112
O           1.06663187523131    0.00002243495129    0.22119327013184
O           0.87973660228988    1.88727632418070    1.74937192568173
O          -1.08560822324034    0.94458921454680    0.70672042454400
O          -1.18689416536067   -2.29668315223453   -1.93344394976201
H          -0.84451896998777   -2.88965492217839   -2.60453142468170
O          -2.20904638200100   -0.95764759535400    2.06388519159910
H          -1.13241574562692   -1.84328705570815    1.23450688777898
H          -1.81028003317027   -0.13139545496725    1.69049155073202
H          -3.12291511357991   -0.94969017447085    1.77232266699373
O           0.18424589551959   -0.05922488051916   -2.29134953033972
H           0.69486908352709   -0.08042384299756   -1.46008385602162
H          -0.80734628399180   -1.40926784750940   -2.14533510538532
H          -0.11126156146809    0.85459652848252   -2.34391737891032
O           2.76163301302879    3.07824027720415    0.30778331593748
H           2.74860318410737    4.03786370404727    0.32146582591207
H           1.72085746402039    2.29777316424547    1.46407619693739
H           2.03378584878213    2.80330240303782   -0.29101311151607
N          -0.34064825748297   -2.14571946751361    0.60533721067866
H           0.29532357749932   -1.28645795048313    0.50577661946852
H          -0.71224151058041   -2.35302073546864   -0.35445975611419
H           0.17083202114676   -2.93013711987714    0.99375707782744
