    23
        -45.37367565  Gyration_radius:  2.49368958192 Dipole_moment: 4.203
 S           0.88262068807393   -0.54209002184415    0.86280499748922
O          -0.29569451977178   -1.37023020700192    0.74340978858020
O           0.98490942229195    0.37513380305576   -0.29274844013689
O           0.97584987978866    0.18037423074811    2.11524331966459
O           2.11623894762366   -1.50750375542299    0.75978366209320
O          -2.61620786028229    1.61155805185079   -0.99585667484803
H          -2.81545815795208    2.49924149532690   -1.29829143122360
O          -0.78976823009624    1.97269368086548    0.88863903159450
H          -2.05858725826329    1.72565470737690   -0.18819616255671
H          -0.72197971270438    1.60666941976951    1.77544827342033
H          -0.03432747722568    1.56821579554675    0.42208546047535
O          -1.37554035821900   -2.52728311899552   -1.30979321689976
H          -0.89386660217683   -2.24639240991848   -0.49104361461046
H          -2.25785478883865   -2.76113397751355   -1.01474238396861
H          -1.12896567490030   -1.05609176119265   -1.94818539914948
O           3.58506689791282    0.25962471123248    2.08531682707008
H           3.92535175001124   -0.04086004430110    2.93104855601434
H           2.86718983953695   -0.97434863151863    1.09051498679376
H           2.63671534418815    0.46791464519383    2.23072403245503
N          -0.82928628256919   -0.05507564356541   -2.09731827031451
H          -0.01989403234478    0.11069247206736   -1.41183360470422
H          -1.60306624510442    0.59133451290347   -1.80450516216136
H          -0.53344557919841    0.11190205520055   -3.05250458533276
