    23
        -45.37020843  Gyration_radius:  2.46760495532 Dipole_moment: 3.286
 S          -0.05111763761499   -0.97201295263493    0.90486812873951
O           0.87479541989455   -2.00664193736809    1.63980477709385
O          -0.14191231375101   -1.40208108019315   -0.46863840026392
O          -1.31931162585146   -0.92421687763137    1.60588106340281
O           0.65987519758169    0.32663611980741    0.99197519579386
O          -1.36251862440276    1.46757320710200   -2.53452962835884
H          -2.22773018397156    1.27393084405902   -2.89798002509008
O          -0.26043234085412   -1.37548757484812    3.95082642188817
H          -0.84176211166463   -1.06228147760206    3.22468408106579
H          -0.73814905248803   -2.08284169229566    4.38985215244876
H           0.70428733176861   -1.85235045432385    2.59179173704769
O           0.59358210961247   -0.32116911218191   -2.74153018617087
H           1.49292451316226    0.43622408616147   -1.89066065218180
H           0.28527479669964   -0.92958066420604   -2.03336979860384
H          -0.15015204368509    0.31745632081364   -2.84885502539891
O          -1.64305454142146    1.37588774313595    0.13342253704988
H          -0.75893788228446    1.25516976202336    0.51888297592577
H          -1.47914695318727    1.48683590772111   -1.55716923357733
H          -2.13846824056552    0.63783902713502    0.50734920223549
N           2.03236054752055    0.97902617551370   -1.07971378366104
H           3.00252084835916    0.68980579271415   -1.01853920389632
H           1.50349042767138    0.69950799209909   -0.17310510168385
H           1.96358235937301    1.98277082496321   -1.21524724374664
