    23
        -45.37020837  Gyration_radius:  2.4677014679 Dipole_moment: 3.289
 S          -0.26458874985859    1.29832449785771   -0.08781619100202
O          -0.84576946826807    1.59364886163479   -1.38284430183950
O           0.04676152527766    2.66053387243581    0.62989290482036
O          -1.12380891610029    0.55217821949107    0.79809093927918
O           1.04505195833290    0.61721078464665   -0.22960062533061
O          -1.05814450474804   -3.04218889949843   -0.23842789255372
H          -1.91918106652185   -3.31529471359119   -0.55814862203778
O           0.53364838861040    3.78559768411877   -1.72052347717458
H           0.03400716125845    2.95458747409117   -1.87280370139032
H          -0.05451858779072    4.50138182388814   -1.97153568889583
H           0.39090042384138    3.23795788781272   -0.08239679491563
O          -0.85249028242887   -1.72821937207295    2.06370682132715
H           0.56253809439632   -1.45925864606983    1.88455097658820
H          -1.15588785741028   -0.85173873305949    1.73749598151535
H          -1.02810153507942   -2.33799730157388    1.30882261936132
O          -0.26467154041897   -1.05179554709528   -1.85477110376696
H           0.43080302632020   -0.55611818702921   -1.39081555146951
H          -0.74544905129057   -2.34982741994927   -0.86456531519785
H          -0.90644311923378   -0.36450002553165   -2.06868946096489
N           1.58210028627845   -1.13299554324929    1.57295651883257
H           1.40062284183201   -0.36015131718647    0.83153677426220
H           2.08715888512955   -1.90167257707621    1.14338994613345
H           2.10546206760683   -0.74966284299581    2.35249522447327
