    23
        -45.37367548  Gyration_radius:  2.49380650182 Dipole_moment: 4.202
 S          -0.93769412901813    0.24388966311316    0.94501209354924
O          -0.51685325939686   -0.16217254960188    2.27076441846961
O          -1.34997094898565   -0.84905691452704    0.09424174547373
O          -2.18403443280871    1.18679063712785    1.09279962480364
O           0.10642772106372    1.04972877121190    0.27612491056824
O           2.46817096564286   -1.47799177136331   -1.46214776027860
H           3.41500146862277   -1.34783446428369   -1.53780966955363
O          -1.18013656783467    2.11204739540137    3.36775039616278
H          -1.95840084125826    1.76434032227660    1.84966874780544
H          -1.70962305745996    1.95088059157630    4.15185485900720
H          -0.74180550476812    1.26002824084165    3.15391797440494
O           1.91660938067742   -0.75487594115148    1.02544007547789
H           1.38924965864880   -1.19031650286646    1.70175135136367
H           2.26133064046030   -1.36761539733063   -0.50219676795593
H           1.39788954794016    0.04564686722479    0.81998690839855
O          -1.71999480497677   -0.99495108811328   -2.46782871533901
H          -0.29678100155663   -0.21593873404608   -2.46191908902492
H          -1.73114563133366   -1.93594878025414   -2.65381082912047
H          -1.75676967930830   -0.92472291349768   -1.48051246630659
N           0.57870896038501    0.29036582376828   -2.15977172219132
H           0.36515632714300    0.68177114951288   -1.18324591445321
H           0.82405119779512    1.03564671487187   -2.80176624049018
H           1.36061401023533   -0.39971113015742   -2.03830393055356
