    23
        -45.37367573  Gyration_radius:  2.49330676365 Dipole_moment: 4.202
 S           0.55725139337153   -0.44395543087812   -1.14495630628294
O           1.17098146863886    0.60936006437747   -1.92805179151834
O           0.98937298433374   -0.38107939631861    0.26797776288839
O          -0.88512906079500   -0.47915357208937   -1.22747378754130
O           1.06745693712781   -1.82381460567244   -1.69291582638764
O          -1.46191892082646    2.04764306405162    2.02408342061589
H          -1.19604256790439    2.64594877804542    2.72445083591161
O           3.39990982560920   -0.70376824883276   -2.27912595967236
H           3.63469331868823   -0.69791554560854   -3.20972935939666
H           2.73158920198804    0.00568941985119   -2.16133009723601
H           2.02078497633873   -1.67878430069079   -1.85914788117881
O           0.49218117422959    2.23618771785718    0.24549664771396
H          -0.83499156720071    2.21634973833101    1.27927734522072
H           0.85466831871343    1.33630352159486    0.34914454172108
H           0.46296960471603    2.35271675863022   -0.70875337125456
O          -2.65409932880353   -1.70452313296947    0.21791684816280
H          -3.48233599007034   -1.27465083112844   -0.00453066546826
H          -2.00151702179361   -1.37161851649107   -0.44890360414837
H          -1.74449571626592   -1.07855290984357    1.40654404421344
N          -0.98031691617543   -0.58782916358586    1.94452709702053
H          -0.12999881681602   -0.57007430720025    1.28954350509585
H          -0.75987725419660   -1.06804853487961    2.80972799643533
H          -1.25113605294726    0.41356945346562    2.10622861500609
