    23
        -45.37367396  Gyration_radius:  2.49536224807 Dipole_moment: 4.206
 S           0.80390798562811   -0.96295051315875   -0.52156936311669
O           0.64018812698632    0.10898240388693   -1.47664853384805
O           2.09961570533806   -0.98659915332013    0.12718535695718
O          -0.29070817944663   -0.93682525041485    0.47273691730440
O           0.63121565669364   -2.30235493583046   -1.32088701867212
O          -0.82528527938895    2.78479451304527    1.39366850471878
H          -1.06612339017061    3.09328433193778    2.26886796983007
O          -1.46035966470300    1.15536339097749   -2.57982927655527
H          -1.15479798497434    1.99769866840945   -2.92227051392429
H          -0.63905575938618    0.66985532463871   -2.31378488627251
H          -1.99301119403586    1.07689543766875   -1.04919800849889
O           2.04250376992503   -3.56308884056400    0.53801825790336
H           0.98458594606460   -2.98695709422872   -0.71780564348350
H           2.86447709794751   -3.95715785686996    0.23752410497374
H           2.21272324934744   -2.59906694333711    0.61351001818804
O           1.01988364316785    0.93828381953408    1.83498996245324
H           0.51054760162717    0.16396869956366    1.52909348573684
H           1.87937179987091    0.81094619250401    1.42202018877016
H          -0.03134053091483    2.21051021088891    1.52347644338268
N          -2.07783262430520    0.88016681481854   -0.01570701393885
H          -1.40082016963996    0.07105622400446    0.18258229940955
H          -3.02536873291519    0.62924329795074    0.24324064613263
H          -1.72431707382150    1.70395126804683    0.53078609262930
