    23
        -45.37367553  Gyration_radius:  2.49449315015 Dipole_moment: 4.197
 S           0.61386358894391    0.99994314458571    0.67344300479189
O           1.58904722503793    2.17768419990776    0.31890413429161
O           1.41722987706458   -0.20080382287252    0.70736352621278
O          -0.03785361515371    1.31354839765541    1.92902325466339
O          -0.36393042577894    0.93245056553344   -0.43407641877577
O          -1.71965335119206   -2.69364120805560   -0.46164539880009
H          -2.62662958713365   -2.91157706512066   -0.68312136624268
O          -0.08876083726330    3.88211342218038    1.46699164142139
H           0.25604220861986    4.35408282577737    2.22825199076411
H           1.08381547488997    2.98420231345227    0.54633155307801
H          -0.29894670249456    2.97546233506620    1.77961444969351
O           2.42547546000366   -1.65593160574873   -1.18683230181082
H           2.65391900712981   -2.48219366110666   -0.75635812543708
H           0.92692243815669   -1.47210584234560   -1.78071003822844
H           2.20469198920283   -1.03162771554574   -0.45012663666898
O          -1.93561296433959   -0.56915215481103    1.10523834323276
H          -1.53921125859082    0.08462862477901    0.49893698681140
H          -1.77759323650819   -2.00577914287682    0.24540605565299
H          -1.52046474792367   -0.36597483300683    1.94872144196078
N          -0.07342167129939   -1.16930638405177   -1.92779181701532
H          -0.72101697872297   -1.86267597751326   -1.47796268633724
H          -0.28501448709973   -1.03079725925571   -2.90954163204301
H          -0.18289741563555   -0.25254916656329   -1.38005998126382
