    23
        -45.37367510  Gyration_radius:  2.49414413437 Dipole_moment: 4.203
 S           0.41634049315094    1.17697798556068    0.52819186522903
O           1.54108542169534    0.28993524258113    0.33789375206981
O           0.34885921071163    2.26314720334602   -0.42877133309468
O          -0.84635967102919    0.40740592745316    0.55264216931970
O           0.57454602728230    1.79522312296435    1.96217909376573
O          -0.53800069130465   -2.25458904288113   -2.24087917982117
H          -1.27691564435045   -2.54740630179302   -2.77696078473275
O          -0.83713627960083    0.37317329772230   -2.11029039675167
H          -0.53652873709831   -1.26848764057582   -2.30753260527804
H          -1.04634347591339    0.43685531982505   -1.15925018924487
H          -0.19795958517123    1.08000139719588   -2.24129902794719
O          -0.91595372521050    3.85594464612124    1.20730390204901
H          -0.04391487834714    2.55338675216335    1.96465432798791
H          -0.48193678161196    4.71178758160777    1.22631093993322
H          -0.58270456590119    3.39792012064221    0.40535886212482
O           2.04447266818463   -2.08812854112321    1.24037001804452
H           1.96331493610058   -1.12480859424614    1.02491058659871
H           0.50339958055898   -2.31102234584223    0.78513875791538
H           2.74556751132100   -2.41483422671332    0.67295622498789
N          -0.48143857047667   -2.15917146473099    0.43693977825742
H          -0.52430538868308   -2.35141362039951   -0.59436232943501
H          -0.67382572673209   -1.11008743378801    0.55823416446011
H          -1.15426212756758   -2.71180938514080    0.95626139360607
