    23
        -45.37367544  Gyration_radius:  2.49260292071 Dipole_moment: 4.205
 S          -0.91146483142032    0.41188808311908    0.90257577077975
O          -0.87030758861709    1.15242529004852    2.28625371205123
O           0.21149150440784   -0.55015862847158    0.92111586580481
O          -2.18465425842386   -0.27066195311391    0.79158514074883
O          -0.69092189996981    1.42143628451174   -0.10776445917963
O           1.13768976030258   -1.17139460317527   -2.78661023011852
H           1.43039019078844   -2.02175409614539   -3.11888724745203
O          -2.32813907236196   -0.79474574677969    3.34553219975008
H          -1.26142633440138    0.51135742755279    2.91357244572013
H          -3.18838354714748   -0.53275723547066    3.68098525953103
H          -2.41557499983916   -0.83275784488741    2.36844491946228
O          -0.88064919010599   -1.77284319912078   -1.17923779031197
H          -1.76053004480183   -1.39136153483305   -1.10643416312394
H           0.28985949441298   -1.34985472560194   -2.31169428151989
H          -0.45882984488482   -1.52300051267572   -0.33570703545902
O           1.46169182265878    2.67572609758185   -0.82364780650781
H           1.23799735243382    3.07106279689195   -1.66856345429710
H           0.60342273121265    2.34416497805073   -0.45658685163695
H           2.04663711878815    1.16245132397777   -0.79706632611436
N           2.15040868205725    0.12007430076720   -0.66768146009580
H           1.40537173203815   -0.15792830487410    0.05343790743389
H           3.07809151316091   -0.12923657997773   -0.34357551395823
H           1.89782969965770   -0.37213163738510   -1.56004661143653
