    23
        -45.37020841  Gyration_radius:  2.46755426854 Dipole_moment: 3.290
 S           0.13158418333394    1.15138248124987   -0.64902811445526
O           0.69581544672557    0.00183973553202   -1.31223191216470
O          -0.95550454113999    0.73388132240822    0.26923974163969
O           1.09961085095273    1.99003157894116    0.03039917264671
O          -0.56680192444773    2.01394075958947   -1.76077395407249
O           1.40770711483251   -2.61864708588917    1.26117568168928
H           2.35080235931057   -2.77216414461936    1.33335338444926
O           1.02707651924027   -0.03654398893740    1.88717295496005
H           0.16095683377330    0.22650307723961    1.53314860070816
H           1.26419091852664   -1.68641574060635    1.54317429249228
H           1.62151729871039    0.61321698460067    1.49414316070866
O          -0.30846271461240    4.17266641441417   -0.24423007388018
H           0.30376978964256    3.48309344357714    0.09202228990492
H           0.24501532260486    4.87122580810202   -0.60052233827853
H          -0.69788480964863    2.88987014970885   -1.34264311446303
O           0.24797097404827   -2.57553145526840   -1.13087830676971
H           0.54739338136424   -1.67896881017079   -1.40140469366310
H           0.74882237755664   -2.75431493864701   -0.30039132176259
H          -1.03037089730107   -2.13904998126611   -0.59952537683494
N          -1.90105558050712   -1.62067897869750   -0.13462617126742
H          -1.55470934170124   -0.60288915504708    0.02052707915273
H          -2.12968623501765   -2.04006687467807    0.76111940993602
H          -2.70775731622680   -1.62238058183771   -0.74922040051597
