    23
        -45.37367565  Gyration_radius:  2.49382336228 Dipole_moment: 4.201
 S          -1.15211464276745    0.44722654531767    0.54538458837380
O          -1.12234756084288    0.47194767872267    1.99380412086026
O          -2.37372286965046    1.30829504720197    0.06496258349142
O           0.05066735046580    1.09123417677739   -0.02520498769111
O          -1.33233546665324   -0.87016957108685   -0.02065111393731
O           2.74858994766230   -1.67764820813712   -0.24717249108063
H           3.68150366410072   -1.51291091136770   -0.09977060201163
O          -2.03028405250536    2.91486144910658    2.14825437377795
H          -2.35863491733345    2.09295101235992    0.64936639059149
H          -2.76066019353761    2.94928027565923    2.76995874102240
H          -1.56228712394318    2.06961574157346    2.32260574146128
O           1.54509624413217   -0.31146897560522    1.67685378216180
H           2.28632820433280   -1.31223554133523    0.54587061572752
H           1.12034838413364    0.36428706362647    1.11560034545847
H           0.84333668904703   -0.56588357409111    2.28336110853106
O          -0.99444717441039   -1.76799784028021   -2.42919765283114
H           0.38733202277585   -0.93240678470192   -2.27323960897095
H          -0.97158910143154   -2.72158938971113   -2.32718166263595
H          -1.29726149995489   -1.42004128873886   -1.55260002113688
N           1.15646627228748   -0.30665662540755   -1.91123135926908
H           1.58215949432347    0.23593440871540   -2.65433465529282
H           1.86189484742693   -0.88213580529608   -1.38822655126154
H           0.69196146246680    0.33551109665721   -1.18721168536293
