    23
        -45.37367552  Gyration_radius:  2.49314694398 Dipole_moment: 4.204
 S           1.01442141544217   -0.81369602792184   -0.35852248790264
O           1.11767776732767   -1.00793930141890   -1.79053786865355
O           2.35037034572972   -1.30825656652331    0.30149233173298
O           0.89916920901414    0.62131948629046   -0.02033524556300
O          -0.05169038062762   -1.56361004540073    0.26546735905080
O          -2.87950082097222    1.45386002967848   -0.16955508891116
H          -3.21945535562947    2.29485796930755   -0.47998611088431
O           3.68110093908816   -0.51583637909154   -1.85270413613640
H           3.05058538960238   -0.97960013848572   -0.29780494968829
H           4.13117917366937   -1.20909636243875   -2.34055745219159
H           2.72969982356253   -0.59345615173177   -2.08202870198862
O          -0.96945160976521    0.85520477727222   -1.90503796452229
H          -2.27787580283241    1.13128213136504   -0.88381363266756
H          -0.20755338807747    0.94607704388225   -1.30237644084552
H          -0.78151199749839    0.03787613031501   -2.37575859322564
O          -1.13475775209303   -1.36725546616600    2.61226425534193
H          -1.13624517752859    0.20217141365553    2.20148983862430
H          -1.95178252221472   -1.86469257789940    2.53996640839026
H          -0.62883688963550   -1.57730437882875    1.78680957469557
N          -0.98395965643180    1.11569615191918    1.69505393244208
H          -0.15025548751911    0.94849856632241    1.03982744652447
H          -0.79166018643565    1.87590319026252    2.33761814128176
H          -1.80966703616278    1.31799651568528    1.07902940518198
