    23
        -45.37020862  Gyration_radius:  2.46773079472 Dipole_moment: 3.296
 S           0.79203232863401    0.03343773546371   -1.06744539008022
O           1.17285585358770    0.12325412524334    0.36303622255249
O           1.77716707744103    0.99486079346779   -1.82444079130718
O           0.98887651338426   -1.30843406002847   -1.57985451157656
O          -0.53493391983118    0.56179680554530   -1.26660593944683
O          -2.80383206064296   -0.91813285249823    1.31541822695795
H          -3.46675412887740   -1.47836508796160    0.90934093457564
O           3.54162846230453   -0.97380914821709   -2.02067159461592
H           2.60783890434564    0.48158873159930   -1.90022901242247
H           2.66523334690571   -1.36324640232269   -1.81167950388135
H           3.75490079747921   -1.25785120529877   -2.91237233520114
O          -2.34837769244751    1.52309814874949    0.36533192588518
H          -1.20460063074225    1.73719640704201    1.23266599547090
H          -1.82113567588101    1.25830422457128   -0.42118856643118
H          -2.69680776206232    0.67060883805954    0.71780786017790
O          -0.42865397800711   -1.99302498229434    0.67664488822309
H          -0.28563447083020   -2.26043144824742   -0.23874413784775
H           0.24771532453582   -1.30700825258967    0.80596833344461
H          -1.93713071673266   -1.34407516325869    1.12418107677680
N          -0.23608527845913    1.73369282362717    1.78516154012843
H           0.40703624028636    1.08896165706432    1.19316570370100
H          -0.35535789673864    1.33380556107079    2.71063881165515
H           0.16401936235924    2.66377272119647    1.84387026352503
