    23
        -45.37014327  Gyration_radius:  2.46623261978 Dipole_moment: 3.515
 S          -0.54550852753581   -1.03808032603115   -0.71989825527123
O          -0.06054336013655   -0.99312568199710   -2.08530145206052
O          -1.45864655663939    0.02376368665930   -0.37586680029938
O          -1.32361891759692   -2.38701188707926   -0.52102470787955
O           0.58050340432256   -1.08102087459572    0.24512478984771
O           0.54567630833162    3.04968145896625    0.50436245020346
H           0.56510215021725    3.85033723727715   -0.02120289919073
O          -1.59906538018761    1.81112332903440    1.53700470707950
H          -0.99407358537957    2.47817754639756    1.15043382277771
H          -1.78910433678922    1.19595200721198    0.79420185323980
H          -0.55255876832083    0.97226503790296    2.14823556751419
O           0.29960923604333   -3.57407526328071   -2.24990855360645
H          -0.78899460407855   -3.05056259075123   -1.00376815785861
H          -0.11768644209764   -3.90555916673446   -3.04819428399384
H           0.37759262889738   -2.60228546586034   -2.36544012615818
O           1.47141587412412    1.06999879455035   -1.05349831649844
H           0.89968227224255    2.33890324013524   -0.07753377181399
H           1.38360892049410    0.25047682098016   -0.53612259303800
H           1.01326207248460    0.85457870765235   -1.87305974835094
N           0.32278419016369    0.33613880460563    2.37575526009371
H           1.14843651196474    0.92507324499560    2.44078853204912
H           0.42492719820314   -0.31531111740807    1.51361024378699
H           0.19719972118087   -0.20943751258629    3.22130243938695
