    23
        -45.35981436  Gyration_radius:  2.32614393922 Dipole_moment: 5.669
 S           1.40971881780922    1.46660846039375   -0.68672774286982
O           1.35453806844568    1.95736278839842    0.78899992458070
O           1.81972065724098    0.08143493154944   -0.66998978948684
O          -0.08932654164942    1.52497608137506   -1.10423029435800
O           2.14821658842291    2.34908458760493   -1.50681801812603
O          -0.54263208432123   -1.27878723768461    1.78102640829608
H          -1.02021188073929   -1.97898122355731    2.22704168188879
O          -1.37338095340057    1.16035796236322    1.08915068713107
H          -1.16329299506525    0.25163819281030    1.40316202130377
H          -0.90636791809828    1.76816644033757    1.66924840410636
H          -0.65453120397603    1.37277291550151   -0.28262021377462
O           0.01629408152059   -1.93203095300118   -0.63065037694394
H           0.76642046272884   -1.32843001347268   -0.77828247832063
H          -0.35285442021813   -1.61205357110718    0.84154423043152
H          -0.69333960438258   -1.60549372824071   -1.23285833591169
O           1.94046041347527   -0.20439367182964    1.99537735932352
H           2.29588841419661   -0.54433133736777    1.16158264086033
H           1.62708674523594    1.17265919738927    1.37279523012589
H           1.07977352171427   -0.65357385189962    2.11326170220209
N          -1.78563716444984   -0.67912485568928   -2.23790913755294
H          -2.72373699438258   -0.52153890115762   -1.89169999140265
H          -1.85519911538982   -0.97734896638248   -3.20260950958664
H          -1.29760689471611    0.21102671366479   -2.21879440191670
