    23
        -45.37367526  Gyration_radius:  2.49234684939 Dipole_moment: 4.205
 S          -0.69015837778177   -0.81023880519024   -0.82207764171815
O          -0.35391335907115   -1.67945955739530   -2.08560764613104
O          -0.17984707206994   -1.53483496284030    0.31944881243699
O           0.04557778667624    0.46102228861471   -0.99413006911762
O          -2.12154922667850   -0.58824894404125   -0.79277177846824
O           0.58621376660142    1.85543792135346    2.57708704820608
H           0.56525806967035    2.79155230720017    2.78316096644182
O          -1.46303163216479    1.51698982746164    0.93218441522467
H          -0.25621863968753    1.67114179834842    2.09492816059067
H          -0.95428686283570    1.31284571902369    0.12515878692173
H          -2.16038520262818    0.85467463000641    0.92578341443370
O           2.24184314135513   -1.88722971911934    1.17428538435401
H           2.13315206340018   -2.20851795730369    2.07166311992475
H           1.33515699764530   -1.91649436880859    0.77639734366812
H           2.28892635625603   -0.28526251556964    0.92126019865114
O          -2.34426648091469   -0.51013933744723   -3.39370490543668
H          -0.91568283513600   -1.30362042750279   -2.79316637504741
H          -3.05343161765710   -1.09311628934331   -3.67387019440606
H          -2.47336255447166   -0.36554478286481   -2.43136297515689
N           2.04283283698185    0.70328748576142    0.64465926653758
H           1.27241836643327    0.61388999559514   -0.09744674969673
H           2.84431280375773    1.20238374737734    0.27543705816062
H           1.61044167254563    1.19948192686314    1.46268436963524
