    23
        -45.37367503  Gyration_radius:  2.49241148084 Dipole_moment: 4.204
 S          -1.30558152591656    0.32344976639711   -0.05847327138561
O          -0.73799911696420    0.20368655318767   -1.38215209246246
O          -1.58917908152996    1.68583398279082    0.34458147312987
O          -2.65817506953664   -0.47338029986331   -0.08200928866354
O          -0.44663615204427   -0.36022257268383    0.93235539903515
O           3.20087748907661    0.43181880854480   -0.09913120554837
H           3.90675552816730    0.57231075453754    0.53434543905808
O           0.42313432351864   -1.79097859452425   -2.56186786047374
H           1.21031902896821   -1.84150073774267   -1.14416616393179
H          -0.16505293664477   -1.07893797718703   -2.20333604286037
H           0.86067581994649   -1.39802939367659   -3.31974437603247
O          -3.53324772987497    0.99644365165576    1.94610649927377
H          -3.12834033386992   -0.17351381664456    0.72205040898852
H          -2.77469776620630    1.45828251333292    1.52774652336245
H          -4.30686325498935    1.53483403854719    1.76480603356647
O           1.15258873464023    1.77172669457061    0.91656119330123
H           2.47629980832108    1.04675461812685    0.17047928437480
H           0.53993200960658    2.39034599701081    0.50806798340395
H           0.58684755369312    1.00702332082221    1.13305682017474
N           1.52176199369053   -1.65660821144959   -0.15268954740555
H           2.29387045156005   -0.94527813630140   -0.15373343531573
H           1.78917557139099   -2.51026411593945    0.32429795031597
H           0.68353464481907   -1.19379685379186    0.33284829630651
