    23
        -45.37367569  Gyration_radius:  2.49367748187 Dipole_moment: 4.201
 S          -0.64738721605592   -1.04918682165499    0.54550460206750
O           0.75065559535444   -0.56717938769232    0.55829748744296
O          -1.32675933985671   -0.58628255174608   -0.64304253052147
O          -0.56565819307020   -2.61265309425317    0.43001218928911
O          -1.32599720728157   -0.72111138384255    1.78293159114914
O           0.63230945152115    3.08145852196861   -0.73255718390137
H           1.20910624796476    3.77263889261447   -0.40281737744844
O          -0.36047289813655   -2.77697688037934    3.06973814203823
H          -0.34080868840960   -2.90926974867831    1.33502459192199
H          -0.71682745929235   -1.89222739478636    2.83710974913147
H          -1.07290999266402   -3.24426885941404    3.51165722775939
O          -0.52405374727530   -0.35992786905343   -3.09753876234290
H          -1.17813572627513    0.20724627923040   -3.51068101150261
H           0.74381708923623    0.32405876846721   -2.35106853691374
H          -0.90699975189543   -0.59829079103803   -2.21558346939469
O          -0.12587668780474    1.78527449593089    1.44951841728455
H          -0.99736703005308    1.49734375236957    1.73694248147985
H           0.34020312150773    0.94591342510592    1.27576530051376
H           0.21112259962669    2.68339416019792    0.06772125523946
N           1.41734955526239    0.67721290179048   -1.61911545001257
H           2.38245315493789    0.55616625732015   -1.90493818376584
H           1.20688897623620    0.10911436411172   -0.73301518203010
H           1.19534812638445    1.67755295397651   -1.38986533726116
