    23
        -45.37020861  Gyration_radius:  2.46798417312 Dipole_moment: 3.297
 S           0.22699753766594    0.91392617691120   -0.93690962114885
O           0.09715081019479    2.45959819779411   -1.18662373050138
O          -1.07211709893227    0.49708422657413   -0.35563824056992
O           0.46219976473721    0.26903899784907   -2.21386292390581
O           1.28593238925700    0.73904526818925    0.02626737923603
O           0.97493512577460   -2.67385406987128    1.52914369177322
H           1.72481916799650   -3.22313517841637    1.29630410531590
O          -0.19545207096783   -1.99020359280625   -0.78763267641205
H          -0.75564750476804   -1.21497506176345   -0.61439476456229
H           0.36935514808210   -1.68575201035480   -1.50748710428321
H           0.51771589282799   -2.46845576245527    0.68180227503997
O          -0.97220017720160    1.98367398466173   -3.56525183458807
H          -0.52173509654607    1.16701117507854   -3.25950053855148
H          -0.41851662698594    2.53011327646473   -2.01627710412383
H          -0.47060126908666    2.29938197321253   -4.32027009744827
O           1.35359073655162   -0.21517259336694    2.46783922272516
H          -0.06277059504603    0.10183903055266    2.44423728866644
H           1.33646260444971   -1.17699999174849    2.25114562329669
H           1.56063729389418    0.21893611318325    1.61034434680435
N          -1.13001975549413    0.31986516889971    2.20676704099898
H          -1.44571386582168    1.17290465235302    2.65533452519138
H          -1.72027636576702   -0.46393110809064    2.46731962515496
H          -1.14474605459938    0.44006111701902    1.12734351206579
