    23
        -45.35981436  Gyration_radius:  2.32614213352 Dipole_moment: 5.669
 S          -1.76361766363963   -0.92247988466737   -0.80532316527455
O          -1.35054482845684   -2.10998509688139    0.11166153282002
O          -2.84244665520754   -1.26284194385103   -1.65206642126626
O          -1.92549383299905    0.24113624955051    0.03543799719243
O          -0.48553093060119   -0.72211709129567   -1.67204047034023
O           1.24279016202954    0.17253732151367    1.87814598189019
H           1.93586838064464    0.54708274196153    2.42279491054990
O           0.10287896772139    1.97628792098492    0.46308794308333
H          -0.74282998980010    1.52251569785307    0.29669430391162
H           0.83751788009104    0.94298636445153    1.35673222821287
H           0.54034750782468    2.02739877904413   -0.41944816825119
O           1.43334258580626   -1.52837043557374   -0.16852847701563
H           1.47267536028007   -0.92190579409324    0.60552912435439
H           1.06991344216599   -2.35947673113241    0.14963347761527
H           0.31501911786781   -1.00899676778091   -1.12937384406777
O          -1.20150951810433   -0.90886428152200    2.34927781022950
H          -1.73027853348914   -0.19145288367646    1.97135699639531
H          -1.30944300311440   -1.75141272241298    1.06065917415205
H          -0.28497929114264   -0.56886742800176    2.37784355721097
N           1.12345947916399    1.78548952830751   -2.05127386410504
H           0.52873765846847    1.00600162310167   -2.31511764659227
H           2.08473657025170    1.49053591610041   -2.16821097471496
H           0.94938714423947    2.54479890801976   -2.69747200598624
