    23
        -45.37367517  Gyration_radius:  2.49403385751 Dipole_moment: 4.209
 S          -0.43648062405690    0.27374019861081    1.25003484352127
O          -1.09112189313441   -0.02089303047469   -0.04291213296933
O           0.86715817492091    0.85758989306300    1.03104957641602
O          -1.31075310495170    1.38239571914499    1.93598625695965
O          -0.42719558856718   -0.89240350086478    2.11020333506567
O           1.67673104938215   -1.46458740396022   -2.33383889311162
H           1.52825612501374   -2.15617777590152   -2.98103765839137
O          -2.86658177232474   -0.50902976651391    2.95567885494325
H          -2.08088635390854    0.89438913616632    2.29120850893991
H          -2.01636650187647   -0.91564013926488    2.68049500996808
H          -2.88841715057291   -0.55741078083410    3.91398586023737
O           1.71848155839860    2.56197207952194   -0.72761771478608
H           1.38689143701261    2.05142736735644    0.05374419613983
H           2.67408853476911    2.48734994939116   -0.68997968392562
H           0.89045125956864    1.57406762235912   -1.71341807298615
O           0.32767156543965   -2.26955044015891   -0.20156825349807
H           0.59241170073884   -2.31529790791719    0.72206222929265
H          -0.35418025083068   -1.57153227162940   -0.20278834451617
H           1.31637939620431   -1.81522859735740   -1.48313075246147
N           0.27300199229147    0.80541919170003   -2.08995782639688
H          -0.35587397485151    0.51123887291002   -1.27124817897281
H           0.85936358975364   -0.03178871416111   -2.32978272902985
H          -0.28302916859388    1.11995027898671   -2.87716841024666
