    23
        -45.37367553  Gyration_radius:  2.49266251324 Dipole_moment: 4.204
 S           0.70115145514761   -0.87634905952666    0.74650286203398
O          -0.02340251289912   -1.55564287225983   -0.30330175748471
O           0.83359579458220    0.56239867034660    0.43115878284312
O           0.14983715393293   -1.07383668583907    2.07179920475142
O           2.15875882758362   -1.45934979949894    0.72910246920055
O          -2.56700651729695    1.63503896994033   -1.07649563348539
H          -2.95855787246496    2.49727937066380   -0.92677171722886
O           2.44737381991586   -0.75004240326636    3.26922647736103
H           2.54115002832366   -1.17538062214005    1.58390390133195
H           1.48959196569784   -0.76478931791388    3.05409496209227
H           2.59371815552251   -1.47025550514242    3.88655209936015
O           0.05653427189113   -1.29732214203431   -2.88141509093950
H          -0.73821091678092   -1.73786147694011   -3.18904450650597
H          -0.03258981437796    0.26986454515997   -2.47073957598992
H           0.13231565604404   -1.53779697359468   -1.92346456830403
O          -1.65644099179810    0.92363892036672    1.30731694484558
H          -2.36190045181427    1.27754924854436   -0.17846464565883
H          -1.74280930328767    0.09653528262925    1.79052347065284
H          -0.70311442540411    0.96430015065927    1.10370295188460
N          -0.06690280859428    1.17245034620498   -1.92455697644818
H          -1.06648724774455    1.42787543007842   -1.72974859043667
H           0.43241651744524    1.91816164564880   -2.39611983788826
H           0.38097921619955    0.95353429807352   -0.97376121596860
