    23
        -45.37367529  Gyration_radius:  2.49231281719 Dipole_moment: 4.204
 S           0.01688328024313   -1.28068869742093    0.41025677736859
O          -1.06387429710930   -2.38599509581314    0.68431835468295
O           0.15358482930866   -1.19013266277525   -1.02564775632937
O          -0.53929852654434   -0.02274875707556    0.95345879491773
O           1.23440447776393   -1.65663139685672    1.09970456429517
O           1.16745756075772    2.82954000434724   -1.03146408738271
H           1.40415960114886    3.67113966589877   -0.63789352106252
O          -1.40278387504081   -0.15730451903670   -2.82307353673839
H          -0.85041220200644   -0.08716991956810   -3.60427465507983
H          -0.88193213334959   -0.70809456380114   -2.18535918002168
H          -1.39946973181290    1.06385402788816   -1.75467609030487
O          -0.02686220874576   -2.77210487422797    3.09547999032076
H           0.63337423745694   -2.30195631425935    2.54159023576843
H          -0.95444739660572   -2.59971168307477    1.63296447092104
H           0.33324217411227   -3.64724907675363    3.25569178590070
O           1.89568449499217    1.04748646629939    0.78914924391728
H           1.00393995375068    0.74382216563798    1.04273878311194
H           2.39124634006438    0.22774008030101    0.70330115004445
H           1.57029819253952    2.14159034274390   -0.44799602201446
N          -1.23873514148213    1.65695887816042   -0.89645924586562
H          -2.04644199786824    2.22844312157692   -0.67561798491780
H          -0.37016964160193    2.23288114194603   -1.02460697719225
H          -1.02984800004611    0.96633166543331   -0.10158511434444
