    23
        -45.37367549  Gyration_radius:  2.4927120731 Dipole_moment: 4.203
 S           1.23266438067877   -0.53899676666790    0.01499493848709
O           2.67380587532490   -0.04135212309038    0.38945992273010
O           0.54508734396324   -0.77660624149195    1.26373748002065
O           0.59428475471097    0.57495195909999   -0.71880388730032
O           1.36265202228875   -1.71325872208198   -0.82371074953361
O          -3.21935937086102    0.10809240866450   -0.23901942897289
H          -3.86256520599727    0.31505536442932   -0.91922346370213
O           3.55275310570252   -0.87391833113112   -1.97122444915421
H           2.69372726599590   -1.31086219353856   -1.78432002003036
H           3.18306397263730   -0.13123271347343   -0.44131042914067
H           4.21641649170092   -1.56677872466726   -1.94442446375168
O          -1.27784968149695   -1.12926867199250   -1.54993514165314
H          -0.59070952436353   -0.44398973046955   -1.44957779198020
H          -0.80658548437160   -1.94383664867012   -1.35142106687802
H          -2.56171656203363   -0.49065310058402   -0.66940824828490
O          -0.45128849392420    0.86720841346768    3.00269853280341
H          -1.02051724487254    0.32088581203787    3.54836183537855
H           0.06869001101966    0.22993483193947    2.45052397697195
H          -1.06167476394734    1.52407875435058    1.65041408267024
N          -1.28364881338322    1.73970942647313    0.64125446111934
H          -0.46874877976492    1.33437321098234    0.07192677608042
H          -1.37659723643205    2.73625630072048    0.47989540376808
H          -2.14188405238912    1.21020747550366    0.34911173029601
