    23
        -45.37367545  Gyration_radius:  2.4932387412 Dipole_moment: 4.204
 S           0.04394098898051    1.21109029506423    0.59015099825600
O           0.12962837019885    2.69990631246543    0.09948023390064
O           0.47135109191802    1.16476309097113    1.97379289385642
O          -1.32178721628708    0.78895662523172    0.37772456113318
O           0.96032095853215    0.44174614907655   -0.27885047141165
O          -0.34519555389778   -3.20323278870744   -0.24856231944120
H           0.23421368161804   -3.96664670694320   -0.27529572779884
O           0.83376927519706   -1.56579406366324    1.46836202625605
H          -0.01638126861122   -2.64699040193134    0.49879854258316
H           1.08795089800966   -0.86860400815692    0.83492563839403
H           0.47829832348144   -1.06889321171437    2.21113263399290
O           2.22291126643642    3.07954566870514    1.68488245502636
H           1.74546898343115    2.27495940682716    1.98227696244764
H           0.96923836192658    3.03016253843178    0.47822564325556
H           2.10389249574230    3.73260176491807    2.37810991404387
O          -2.59700332793241    0.15947348449100   -1.78971179092845
H          -2.19060164595986    0.55786703199325   -0.97893953721804
H          -1.24581604282929   -0.70526811470189   -2.03139521197085
H          -3.38572276714705   -0.29059984262045   -1.48059863701663
N          -0.28073891248191   -1.12218380001199   -1.93635705374248
H           0.16994042729708   -1.23939274780804   -2.83686884422472
H          -0.33821005568809   -2.02450647915955   -1.40268038569769
H           0.27053166803170   -0.43896021267750   -1.31860250374004
