    23
        -45.37367509  Gyration_radius:  2.49286164632 Dipole_moment: 4.198
 S           0.51023057638174    0.82273739530782   -0.93306670056017
O           1.07179997570464    1.09723022186492    0.36999400781238
O          -0.74703071959429    0.05576888891621   -0.79904082921763
O           0.10718550584408    2.21151883056665   -1.54425738815962
O           1.42583540584870    0.17334944014210   -1.84899433044775
O          -0.13314827283715   -2.50589460756689    2.03816007526187
H          -0.50321602337379   -3.39028193679242    2.02922623676820
O           0.71314707115231   -2.14566779236970   -0.44700116107652
H           0.33141990915616   -2.40440958056761    1.17229512346459
H           0.06819504409877   -1.46243895902145   -0.70967074292954
H           1.54606094440878   -1.80449726935502   -0.78568080908356
O           0.29359543889045    1.17365930104448   -3.97834089132275
H           0.77400917953709    0.59058099027517   -3.35137304036621
H          -0.02527946246922    2.02680944881171   -2.49614638707090
H           0.96219052173897    1.56608296311585   -4.54423777773692
O          -0.05764286681728    1.78743135563064    2.59869353853117
H           0.41026758264226    1.69755125267734    1.73009477446454
H          -1.03513227510330    0.55904829319064    2.18712843728509
H           0.61726516496187    1.64073476504988    3.26432074981254
N          -1.50186271912655   -0.23161011357937    1.66663448456187
H          -1.26570042249713   -0.07644692578177    0.63088376505777
H          -2.50522621887879   -0.23842177762164    1.81147349368710
H          -1.05696333973012   -1.14283420381383    1.93890537120727
