    23
        -45.37367539  Gyration_radius:  2.4925945223 Dipole_moment: 4.202
 S          -1.06718281309064    0.73674698284194    0.35658252654881
O           0.33465934828752    0.64710851796620    0.81884026041446
O          -1.96475545700108    0.05760807363685    1.26889595215259
O          -1.42753905970296    2.26481645932030    0.36031944333951
O          -1.17226220779563    0.29542805871612   -1.01553588264964
O           1.72491371150617   -2.65044750012917   -0.65949951877635
H           2.34898232333053   -3.21068639319370   -0.19484712977636
O          -2.10949948006700    2.07741024825015    2.91728185425081
H          -2.09313651887447    1.17542514581430    2.53000576390212
H          -1.59376274325862    2.47090551423046    1.30242617784338
H          -3.02947484666473    2.26693562299010    3.11470057675748
O           0.37475708037641    0.69147764816567   -3.05735146325491
H           0.08653433358159    0.04415105573321   -3.70398652103356
H          -0.31472207868646    0.67311565313695   -2.34629134549338
H           1.49572174658105    0.25973340235700   -1.96639271075054
O          -0.02846798390913   -1.96441909273843    1.20438270791747
H          -0.99017093213595   -1.96312209176318    1.19184850857450
H           0.97588358767873   -2.50972460221874   -0.03075881429613
H           0.19510924422993   -1.01614800957378    1.25592537176192
N           1.98406605209166   -0.01468668219423   -1.07177453615457
H           1.34920820873281    0.32935509936638   -0.27733355913090
H           2.90642881398152    0.40032082755173   -1.00262058903267
H           2.01470967077306   -1.06130392823568   -0.99481705308048
