    23
        -45.37367521  Gyration_radius:  2.49213415966 Dipole_moment: 4.205
 S          -0.85027754523784    0.79394742474770    0.67523214445307
O          -0.78352201709732    2.22992281471826    1.30643100761945
O          -0.12818344192080   -0.08005881038309    1.57161987533269
O          -2.24428625063323    0.44152414744686    0.49740413687395
O          -0.15158157182938    0.88698235941735   -0.62479111344915
O           1.11212678311454   -2.68977194808972   -1.39982703773925
H           1.14258604720067   -3.05392642698009   -2.28619321208613
O          -2.98286284604332    2.89185064340035   -0.02156319994454
H          -1.47178932389284    2.73532347607230    0.82858204033990
H          -2.91479689829285    1.91288425503082    0.00506813854399
H          -3.74084866290965    3.12197116201940    0.52034055469637
O           2.41327849415116   -0.35297401341593    2.00279760329594
H           2.42483917192586   -0.37981996188683    0.38051946901029
H           1.44426697103533   -0.14766639037264    1.98615620272033
H           2.48626513889563   -1.18323981481562    2.47779241164109
O          -1.23026665964491   -1.45546633692004   -1.29661139591737
H          -0.89672464902608   -0.54010268731923   -1.24595142556056
H           0.18797653183365   -2.36200207732830   -1.27944212833601
H          -1.92193020407291   -1.47490043775384   -0.62864847465645
N           2.13748644173820   -0.33485415159200   -0.63414110064637
H           2.85229722179140    0.09513592507296   -1.21026303838504
H           1.23213916090313    0.24171913585384   -0.65374353224357
H           1.88380813808621   -1.29647829714215   -0.97076788555861
