    23
        -45.37020849  Gyration_radius:  2.46813893516 Dipole_moment: 3.299
 S          -0.76021943835376   -0.02471681825557    1.08908006644379
O           0.60309592889079    0.39765444719352    1.29565874776130
O          -1.66054930659093    0.91848978041993    1.96545290365964
O          -1.17126955543021    0.22801292464446   -0.31325131355917
O          -1.03114009539688   -1.39513754608140    1.47680265994957
O           2.70142732942075   -0.95357048735788   -1.49429163990763
H           3.33950662110538   -1.59252789584645   -1.17365177351207
O          -3.54269435012935   -0.94680743281876    2.03786263929850
H          -2.52014760895102    0.45245424391311    2.02167227996939
H          -2.70033627600453   -1.36807490150405    1.76161998001824
H          -3.74671523614363   -1.30086772537945    2.90638275246976
O           2.43145418761214    1.40293161518941   -0.29265917815475
H           1.90942338513330    1.09380524369250    0.48102039281456
H           2.71429731584207    0.57030357024977   -0.73874976851482
H           1.28093913901016    1.77298016413713   -1.09626957574382
O           0.28283943695155   -1.94148253473009   -0.87876475006149
H          -0.35150291862926   -1.20608158097560   -0.91966154907708
H           1.81551115857286   -1.34315852380587   -1.31386385691851
H           0.14730148336361   -2.28795598575437    0.01086516834845
N           0.29965378879236    1.88505243598016   -1.61380079144776
H          -0.36733643373912    1.22360505831734   -1.06841435930662
H           0.36779472897084    1.57615639358735   -2.57842750205560
H          -0.04133328423184    2.83893555537404   -1.56461155242101
