    23
        -45.35897393  Gyration_radius:  2.43143192926 Dipole_moment: 3.192
 S           0.82537640707658   -0.24240010974612    0.41069723184321
O           1.88513568042010   -0.05457314758045   -0.58527211689234
O           0.13931846872365    1.04606530553731    0.66380031727083
O          -0.11896973741805   -1.26388320422118    0.00500600785135
O           1.50155696893369   -0.66409045631959    1.72816985007322
O          -0.20837921044506    1.60939777378885   -3.06337826373938
H           0.04572300803111    1.77338712339208   -3.97347614794084
O           1.27418248834699    2.26113824693983   -1.11204987174909
H           0.66679485301874    2.13689165054784   -1.93811623372827
H           0.66217452372314    1.99436613469279   -0.28429410479335
H           1.80187935923725    1.36693569478218   -1.04373588382429
O           0.16431495108610   -0.94594862295889   -2.61017653985827
H          -0.11756592494140   -1.15788351252123   -1.69568144398232
H          -0.18223541728498    0.62119799165695   -2.93147115395695
H           1.12061468072020   -1.04828636310405   -2.57991831749296
O          -0.38983298016806    0.14476092549595    3.22174123425380
H          -0.52381297503478    0.85637264598592    2.58269953285822
H          -1.07027305795484   -0.54420139531013    2.99423181612442
H           0.84718760352310   -0.40931351674716    2.46240563535517
N          -1.99183550285388   -1.69324832179292    2.13011077031794
H          -1.41716266136568   -1.65455545046938    1.28688163127632
H          -2.94547977390751   -1.48597919900769    1.86089139452366
H          -1.96871175128108   -2.64615020336241    2.47093465678209
