    23
        -45.37137274  Gyration_radius:  2.42178316298 Dipole_moment: 4.863
 S           0.38069058927816   -0.44743999759042    1.08109924038125
O          -0.73855538646485   -0.93261927079444    0.28645404158631
O           0.79336436099996   -1.56761904796718    2.09025208126224
O           1.54620444031613   -0.16447716688858    0.25927545823811
O          -0.00859878490783    0.73290076300734    1.86954017377661
O          -0.07101996951127   -0.20667934245340   -3.43463707353045
H          -0.53321509540203   -0.68620559329023   -4.12367660637211
O          -1.00802449522912   -0.72315723113657    3.83771636002052
H          -0.65683007349818   -0.42126784927750    4.67855647275285
H          -0.85498442026651   -0.00123783125227    3.19638610523537
H           0.12079752582127   -1.54856723564140    2.80419632966279
O          -1.43944257060083    0.94864008538803   -1.48130990898609
H          -1.40714032352075    0.21122156152958   -0.83383810335958
H          -0.39168172774581    1.79387529978688   -0.87944223483578
H          -1.02352103924974    0.58334569454936   -2.30128732791002
O           0.79610795314727   -1.96631839276382   -1.64661956812730
H           1.52976429747417   -1.53112144787886   -1.19244348901487
H           0.06295239974614   -1.85696286757685   -1.01433293885036
H           0.33206145961350   -0.89566798200851   -2.84795285568004
N           0.45303063434626    2.15344345939614   -0.26076024853092
H           0.73897681219442    3.11065910868178   -0.43598156240642
H           1.21341545477585    1.45413562059007   -0.38000226770269
H           0.16564796869544    1.96111967360199    0.72880795239265
