    23
        -45.37137322  Gyration_radius:  2.42250054759 Dipole_moment: 4.866
 S           0.32935219308409    1.17646703624655   -0.13610186014133
O           1.72463687134739    0.98643276959538    0.29147236491772
O          -0.59452492950326    0.64329288662973    0.85455986081915
O           0.08516263566501    2.71522013591121   -0.26309653248357
O           0.10383481210359    0.60009381426656   -1.45199112508970
O          -2.27703186792896   -2.52488868172704   -0.53995878420372
H          -3.09964869503939   -2.85108435820968   -0.17204897389697
O          -2.52366040293337    0.09129482118370   -0.91519448022632
H          -2.08026275382446    0.36626282251321   -0.09224229382622
H          -1.87059004257150    0.31806100475225   -1.59027736952661
H          -2.44017420976762   -1.57518554683168   -0.76971557703235
O           1.74561987775033    3.19603976248701    1.74272461849733
H           2.51565825437909    3.72442889357393    1.52061644911772
H           0.51035007302784    3.12212167752482    0.52184818300547
H           1.92562506884094    2.29140362665457    1.41823945603240
O          -0.23185419264826   -2.00000686237909    1.06158797398324
H           0.85401399914708   -1.84806010975268    0.07411401768354
H          -0.41360959738052   -1.04689668810369    1.21076717810793
H          -1.00340595913293   -2.32458855360286    0.53423928437695
N           1.55656318058300   -1.42616959311278   -0.66958601353893
H           2.00340119612647   -0.60918577822717   -0.18918989995738
H           0.96742471295886   -0.93593685539516   -1.37353106087681
H           2.21311977574615   -2.08911621398871   -1.06723543573373
