    23
        -45.37137315  Gyration_radius:  2.42251822292 Dipole_moment: 4.867
 S           0.08243129426929    0.93966100074307   -0.78865134990737
O          -0.45089505107385    0.98772392545116    0.56510506210233
O          -0.92393051714452    0.42474678976210   -1.73109131761884
O           0.43663797579159    2.39578766759519   -1.23331629403575
O           1.30963872998281    0.16298770845139   -0.85972072893574
O           1.25128900020212   -1.71936952440092    2.70677826617173
H           1.25155296594614   -1.66725534315981    3.66366173131763
O          -1.02721698054750   -1.49743771711889    1.37181019759522
H          -0.59982359885427   -1.94580683711597    0.03281845435223
H          -0.24795880150280   -1.67806493129737    1.95396170477053
H          -0.99764339309037   -0.53015428320823    1.20641681523475
O           1.92492402641018    0.66410857904794    1.75216304446973
H           2.26712896753766    0.49953457286937    0.86368211591489
H           1.01876911961948    0.97538985004345    1.57468593099463
H           1.61141123212587   -0.85352133860990    2.38754266474845
O          -2.04043561267383    2.79573809696150   -2.07916328535306
H          -2.12920902802634    2.97938005811088   -3.01717919667874
H          -1.90726527689801    1.83067792147335   -1.99570489827360
H          -0.41616590441320    2.82391266129522   -1.46121702879499
N          -0.20085788145442   -1.96544141486916   -0.99932476617176
H           0.72990976214714   -1.50250354189730   -0.95544008632746
H          -0.75281930174501   -1.24116319352429   -1.51790727975947
H          -0.18947174661682   -2.87893069663481   -1.43990976583698
