    23
        -45.37137320  Gyration_radius:  2.42259451325 Dipole_moment: 4.867
 S           0.20794355306815   -0.08454136650021   -1.20880470183634
O           1.55232427329856   -0.67003281770284   -1.08357908915776
O          -0.76443711276800   -0.84800307539833   -0.43997029229793
O           0.21311655787707    1.31999972235261   -0.83229535418309
O          -0.19176413896967   -0.15175388241201   -2.71854935462734
O          -1.89170439785467    1.21469631669110    2.60757610155235
H          -2.71089034510896    1.01700851578495    3.06386798316698
O           1.14385540238061   -2.41724705043839   -3.02496695762769
H           1.87021006956345   -2.38359088976846   -3.65168182518785
H           1.46399562059331   -1.99261283696396   -2.20443417409387
H           0.08533029382854   -1.03905828964571   -3.03239948945148
O          -0.13246688058073   -0.71503846827292    2.15637206448185
H           1.04185860802280    0.07875732853371    1.74816066870792
H          -0.79139547255741   -0.04391069191145    2.46334400611436
H          -0.43816974021039   -0.97483884102561    1.26029329618333
O          -2.38565441412559    1.23424969288624   -0.00033353020894
H          -1.68541774660037    1.77233554401598   -0.39237312415814
H          -2.08002207713674    0.32667837760668   -0.18041538553188
H          -2.13198401024712    1.32344966508085    1.65270493441916
N           1.77860650613168    0.64774783489920    1.14932733242760
H           2.06691092488376   -0.00437631580585    0.38157307337214
H           2.55031537475099    1.04194976660633    1.67637942295012
H           1.22943917178536    1.34813176134590    0.61020440497809
