    23
        -45.37137323  Gyration_radius:  2.42256290845 Dipole_moment: 4.866
 S          -0.80991454541408   -0.40292592575264    0.83207642142093
O          -2.22420803630890   -0.81326017822106    1.35628547602514
O          -0.72479536826487    1.04557626241945    0.92760293002217
O           0.18589621296053   -1.04894943625406    1.70207191464376
O          -0.67591064665300   -0.86424996415749   -0.54215037498792
O           0.72231518798886    1.98617554571151   -2.71769283747576
H           0.61738775534937    1.97882398378334   -3.67025374695153
O          -1.31747913212955   -3.18698961982858    2.10014438249191
H          -0.54582491750480   -2.59843089199277    1.98132216554972
H          -1.37727991396129   -3.37367216955943    3.03989750641700
H          -2.16912967794440   -1.77099936404841    1.56199355621046
O          -1.62301193090312    1.39064343366844   -1.62670032180199
H          -1.44290114536559    0.44436324290072   -1.47984787541540
H          -1.59023488340493    1.75115176116091   -0.73083988552208
H          -0.18762732519100    1.87120350031079   -2.34332343375958
O           1.72065176531204   -0.13614530860405   -1.48400524946217
H           1.98630559757024    0.42771172704394   -0.14668090649321
H           0.87366660300311   -0.58646816590354   -1.27523078905573
H           1.46272934012533    0.64370132977972   -2.03546823688986
N           1.87296011532459    0.76373416446537    0.90166763563654
H           2.69015770873291    1.21190518384305    1.30165244253820
H           1.54321382676225   -0.08230704963406    1.42453314461369
H           1.01303339990548    1.34940791886480    0.92294609225361
