    23
        -45.37137324  Gyration_radius:  2.42271161611 Dipole_moment: 4.866
 S           1.09411537322835    0.49143222773800    0.27037303034593
O           0.98425548947628   -0.79654135309736    0.93653340175053
O           2.61806304584999    0.76945922809765    0.06133193317423
O           0.44365355638517    0.48496432897532   -1.03204229258320
O           0.56234366805470    1.57119626864810    1.11720057670429
O          -1.84583608171160   -2.59706825318757   -1.30521520167047
H          -2.13051946541423   -2.92883540748808   -2.15803993361212
O           0.76603549337667   -2.14105295613998   -1.42890384266080
H           0.70627785644893   -1.18399079957309   -1.60209061723549
H           1.07718087035599   -2.16893632426170   -0.51453439251316
H          -0.85766571317488   -2.54345795803756   -1.35068380039550
O          -2.16167116290880   -0.03368006598322   -0.71205290875418
H          -2.18467537671568   -0.98698245479383   -0.97562936359576
H          -1.89692866105175   -0.05697418898400    0.73899163893660
H          -1.28092696109253    0.28624492079664   -1.00495193464468
O           2.20139427309516    3.38369980655402    0.10845008801602
H           2.64119794171595    3.85674289140125    0.81862135948501
H           2.69641477909575    1.73235850010028   -0.10998239569885
H           1.41896193710762    2.95125669026241    0.50448706654409
N          -1.39014511820891   -0.03972996573466    1.72281241339416
H          -2.00000507790957   -0.16091261851931    2.52413922443790
H          -0.83853657594813    0.85101102165707    1.72928696222980
H          -0.62298408003489   -0.74020354842960    1.66189897826245
