    23
        -45.37137311  Gyration_radius:  2.4224383032 Dipole_moment: 4.866
 S          -0.17922984171383    0.50650936083860   -1.10575294115176
O          -0.09328428546075   -0.75544976170437   -1.85817382201059
O          -0.65653360748203    1.61249959040973   -2.10185719228512
O          -1.15423224534129    0.40362026992822   -0.02953717813717
O           1.12817637681002    0.91148179705495   -0.61481894894788
O           0.67342352692267    0.36593706507322    3.35685513589774
H           0.21372036546034    0.58642186322274    4.16827304644998
O          -0.34169415518551   -1.45212677074261    1.71786476444864
H          -0.84968211031314   -0.84594528670060    1.13614011292451
H           0.80540286603039   -1.68135089364811    0.82015877532680
H           0.01550790817540   -0.87260900355276    2.43584536727297
O           0.05782086405578    2.19990970185517    1.53953142079387
H          -0.64427863446422    1.68949099743170    1.09683002991265
H           0.51258791056043    1.12365239686578    2.73927889865544
H           0.77473971809020    2.17345459273575    0.89216248751027
O          -2.13379989978892   -0.14275430834282   -3.42346717312369
H          -1.89094012476094   -0.27475729153586   -4.34276937249632
H          -1.48545092459354   -0.64313732863233   -2.88933467941058
H          -1.37335428814016    1.20575604679528   -2.63417918257634
N           1.53318566358285   -1.59908609788730   -0.01006227164441
H           0.95600290042850   -1.64868569809675   -0.88335200109070
H           2.30148095167280   -2.26041771344393    0.02273040140135
H           1.83043107543077   -0.60241350792873   -0.03236568771763
