    23
        -45.37137322  Gyration_radius:  2.42250327635 Dipole_moment: 4.864
 S           0.94628498088672    0.73436159708932    0.27728578651515
O           1.08419444607571    1.30812573006484   -1.07083231798721
O           1.40356626651752   -0.64573813066433    0.30641921762600
O           1.88328537133532    1.54663041415175    1.22884516835922
O          -0.42180836441414    0.86199251321151    0.75839097866700
O          -2.07870605022873   -2.61042512859858    0.84895691535958
H          -2.85444074888582   -2.77241746498364    1.38779344779396
O          -0.30784464487482   -1.30022289051085    2.32964619642464
H          -0.52730520316233   -0.40778536951749    2.00572545129813
H          -1.40065813726260   -2.22299778043115    1.45838189021466
H           0.54945755221981   -1.46756331254079    1.91651948831836
O           1.45800929626365    3.76111629831160   -0.15847577200657
H           2.23682942714024    4.14591464142267   -0.56702163720693
H           1.19439321276084    3.00454659826297   -0.71898905816751
H           1.76342789627692    2.48965228139249    0.98596717771968
O          -2.04617074868683   -0.55654341012814   -0.82508367550440
H          -0.85191099767694   -0.87858690256661   -1.62819750053436
H          -2.18843882750139   -1.35579814966256   -0.25947354975887
H          -1.63304553599781    0.10326289694797   -0.22683640459449
N           0.19205547659065   -0.95872846357835   -1.98758027806731
H           0.54093521505727    0.02811367298840   -2.03232209946895
H           0.31363565356935   -1.48564183873293   -2.84564983172290
H           0.74425445396952   -1.32126781191597   -1.18346958328185
