    23
        -45.37137302  Gyration_radius:  2.42239921053 Dipole_moment: 4.866
 S          -0.94640831991011    0.32517937782391    0.71588601334456
O          -1.22709521344697   -1.03386584665642    1.20637407297133
O          -1.34419680382098    0.47018724061169   -0.67517646226995
O          -1.82615694019868    1.31290344319549    1.54877476739817
O           0.45309216002102    0.67123623092627    0.91827701860971
O           2.24712375198538    0.78982799733822   -2.48634236389194
H           3.07295172195515    1.26373810519848   -2.59450882615472
O           0.56709086305082    2.35659053375512   -1.15694190862868
H          -0.31634571765729    2.03067537951375   -1.37415469453492
H           0.72301425621118    1.97009005512261   -0.27624705652098
H           1.61209578951833    1.43798263547833   -2.08879210289081
O           1.98335276966374   -0.97806744650679   -0.52969059998855
H           2.20800189368199   -0.38725349523413   -1.29067099180717
H           1.59964858600910   -0.37976397901098    0.14760353369203
H           0.73539024968055   -1.64996635987520   -0.93824067008698
O          -1.61087870989159   -0.22454326687415    3.69373558390477
H          -2.43620120780111   -0.58158613179201    4.02981907825017
H          -1.36960991552451   -0.76523797764064    2.91568895738150
H          -1.76492371221533    1.00953657023716    2.47981326454544
N          -0.33247171349675   -1.90709073455969   -1.07518690782742
H          -0.50902225136455   -2.72402603598094   -1.64975084474576
H          -0.79454868065832   -1.03958469847298   -1.41558627553518
H          -0.72390285577884   -1.96696159659088   -0.10468259522232
