    23
        -45.37137321  Gyration_radius:  2.42253416188 Dipole_moment: 4.865
 S          -0.65533900111799    0.15332576110332   -1.02878415462587
O          -1.00500641705114    0.80161105215136   -2.40745722729719
O          -1.19327996635074    1.02791500741101    0.00092302611663
O          -1.29998362229949   -1.16901529116355   -0.98824871221188
O           0.79188970809226    0.02840341546540   -0.93182786283928
O           1.96422377661654    1.33416545207518    2.49348997540358
H           2.87451380352544    1.59717516280143    2.63688405802816
O          -0.99602837868465   -1.57035596128132   -3.58351296995056
H          -1.83169432111879   -1.83915722338817   -3.97203552136483
H          -0.90659204272966    0.08861322608554   -3.07428101018620
H          -1.07664875527654   -1.71723818572137   -2.62017544049808
O           1.14424890457946    2.41995881577791    0.21447499197148
H           1.65683779019488    1.84189949055928    1.70031496257847
H           1.29383713501989    1.63621492015019   -0.34484324657095
H           0.18039113013301    2.45198879795990    0.27529469217555
O           1.42634961781915   -1.03676895694979    1.43897249887355
H          -0.02306466990327   -1.12650987894173    1.69675687565630
H           1.37935192820634   -0.76240995849922    0.49748329542904
H           1.71562206571470   -0.22474465431322    1.92453658409212
N          -1.12233981652209   -1.03438283025074    1.60486244335052
H          -1.65314516451194   -1.41293292642954    2.38183994672362
H          -1.35403390947483   -1.45808828461497    0.67492858993461
H          -1.31010979486395   -0.02966695001155    1.41040422519879
