    23
        -45.37137322  Gyration_radius:  2.42268215768 Dipole_moment: 4.863
 S          -0.01253886610548    0.66312330120727    1.03567761278027
O          -0.57551490008275   -0.66637074886932    0.84864875297749
O           0.17685658112516    0.90944242978337    2.56755119013164
O           1.29884541003888    0.78690853119118    0.41945887948810
O          -0.93152223140174    1.69746068780991    0.53417175824560
O           1.38815633769760   -2.51711507026554   -1.89580802031032
H           1.36076357171955   -3.47257307447902   -1.96476139696751
O          -2.31185208705119    1.78532708183029    2.78717615788437
H          -0.71577301481328    1.11209805304690    2.92099311269184
H          -2.40255751230896    2.69541813501432    3.07882600363694
H          -2.06791126581905    1.81898356017648    1.84091671819878
O           1.79676296626580   -1.88713355679479    0.65014261408840
H           2.17397865832714   -0.99759805580827    0.63970276544662
H           0.86413643011059   -1.71784533673535    0.87625780060453
H           1.65065702692350   -2.31975543669236   -0.96117144728727
O          -0.87094099268216   -1.13751285563798   -1.76872118235439
H          -0.95257441211418   -1.09480156079316   -0.79132675024560
H          -0.36630945378225    0.23091233263619   -1.99019310504251
H          -0.08839522445526   -1.72050315956123   -1.93162343354959
N           0.05299602403650    1.24290737346610   -1.83187340197717
H           0.18289376256010    1.79246652806157   -2.67435125419786
H           0.92052387883343    1.10896235731304   -1.27289979248797
H          -0.57068067701995    1.68719849409790   -1.11679357175989
