    23
        -45.37137322  Gyration_radius:  2.42283303831 Dipole_moment: 4.869
 S           0.16651688246370   -0.15200719736353   -1.20853020170176
O           0.94302681149424   -0.04685716213067   -2.56108264074643
O           0.67570104827305   -1.32507322070836   -0.51614091224634
O           0.39650894335895    1.06815606021633   -0.44847204590271
O          -1.26072853062303   -0.30772501951969   -1.53196879284190
O           1.31276174132908    0.16325059667099    3.17999671950429
H           1.76627376461691    0.78986961991915    3.74573185369525
O          -0.88513568012430    0.89808325842096    1.89410813718728
H          -0.46565239028831    1.18427005383470    1.05388813936006
H          -1.38335243015756   -0.41321158188313    1.43637818967942
H          -0.12852815802257    0.68119912220620    2.49342754215569
O          -1.09706831809317    1.20194849862348   -3.69598706062424
H           0.41021924363270    0.54574091542827   -3.13347360379847
H          -1.49371433193170    0.74633646241168   -4.44203501766673
H          -1.43101647286490    0.76004056858681   -2.89022579367269
O           2.55058732190385    0.13009449845544    0.83195340789384
H           2.32713996083579   -0.72155095058918    0.43385084813280
H           1.94475197221891    0.74154841529252    0.37531956856161
H           1.86162113018895    0.09308008638255    2.35831844846230
N          -1.55641965594795   -1.33082121579051    0.84246310869067
H          -1.85016931158236   -0.99076113719662   -0.10415100867664
H          -2.19002728302020   -2.00270887585216    1.26176978262751
H          -0.61329624765171   -1.71290179542992    0.62486130192392
