    23
        -45.37137321  Gyration_radius:  2.42269736644 Dipole_moment: 4.867
 S          -0.62306344859805    0.04271744502744   -1.05937184258520
O           0.55356638937964   -0.13559570957886   -1.92529596907976
O          -0.41986668286834    1.14251009635782   -0.12745006068886
O          -1.83389634732413    0.39397663465130   -1.98343276482937
O          -0.95730344690444   -1.19437569724917   -0.37204499560742
O           0.00098978931641   -0.25697485744660    3.43354362499175
H          -0.13759865209942    0.29749473701293    4.20276379407342
O          -2.02356192812006    0.13324681187279    1.76155783425992
H          -1.57142908721460    0.77435007198228    1.18362157197866
H          -2.05873728997146   -0.65825019445403    1.20846645129384
H          -0.82016705485904   -0.17208951112322    2.88599018644022
O           1.62138593673052    0.55187224827885    1.49859961653420
H           0.95031722424070    0.98426947590717    0.92716610500350
H           1.12609097789044    0.28524919587421    2.31237635408980
H           1.76856479124721   -0.69835177168702    0.72893644622262
O          -0.24658015536537    1.69480272649956   -3.65656550838197
H          -0.20849862191210    1.33972718923318   -4.54762393712399
H          -1.49455749097336    1.03859924863956   -2.64058301632914
H           0.31538643600356    1.11757424592490   -3.10240706799637
N           1.60724690743094   -1.52255268597872    0.00822332220029
H           1.55931986138803   -1.05813876629248   -0.92980331322904
H           0.61636529374410   -1.81717284612283    0.12738199963515
H           2.27602659884279   -2.28288808733413    0.06595116911548
