    23
        -45.37137325  Gyration_radius:  2.42261683985 Dipole_moment: 4.867
 S          -0.24607774140962    1.06000436180700    0.57142814457651
O          -0.03435858676182    2.18251660468211    1.63843844668616
O           1.05946581220893    0.60236197631040    0.11824887371834
O          -0.99850896564112   -0.00395824491925    1.21685170506418
O          -1.01096026275812    1.64839805774037   -0.53975688103066
O           1.14085830225629   -3.24581362458688    0.13052167237256
H           1.97186511909204   -3.72307296650031    0.14141882869307
O           0.10264389557452    4.02864980308352   -0.25450910787862
H          -0.31401395214474    3.23444783859873   -0.64407715083358
H          -0.57764824284646    4.70496249998251   -0.21915371584180
H           0.20159637696820    2.99177712032908    1.13638484078354
O           1.27009960862931   -1.32697467097119    1.96028658803416
H           1.18000473893432   -2.61528153817696    0.89352055193606
H           1.51079448961914   -0.60543285345032    1.35136203034460
H           0.35271378945238   -1.11771683739252    2.18004722998681
O           0.72964376652421   -1.35301730187271   -1.67824639694407
H          -0.72241017268142   -1.14186893412152   -1.52402438043785
H           1.03517037070088   -0.58537817929942   -1.14794074953813
H           0.92675092772914   -2.14278694497468   -1.11601385815643
N          -1.70768912560742   -0.77685042855076   -1.17637441665803
H          -2.50920552973035   -1.19853766671923   -1.63298815239411
H          -1.65790593592195    0.26603271498210   -1.26432107423154
H          -1.70282868154291   -0.88246080518617   -0.14110303811300
