    23
        -45.37137313  Gyration_radius:  2.42270458252 Dipole_moment: 4.868
 S          -0.87982755959580    0.49578208001371    0.70123218688993
O          -1.57043499739932   -0.77283649228249    0.98367562427096
O          -0.70400736250761    0.68306901233907   -0.73177982545690
O          -1.78299504360204    1.65018432994968    1.24436703619786
O           0.38400441981643    0.57216416378711    1.41622843322659
O           3.02058491744545    0.30162087851685   -1.62628650929933
H           3.37124939309974    0.65983238383442   -2.44303563103257
O           1.50971624670589    2.16660622962289   -0.49207869135270
H           2.55743859984833    1.05316817903308   -1.17707527351825
H           0.65447780114935    1.83521234049826   -0.82103094843413
H           1.47584942181203    1.93729284192371    0.44595181180543
O          -3.97317630171849    0.28139914483186    0.66092564108013
H          -3.22465260484601   -0.34756724375005    0.67378117043842
H          -4.53122586216710    0.05773873771462    1.40931385764677
H          -2.70100395675058    1.42006975403694    0.98580845053250
O           0.87602556135934   -1.25448235130967   -1.68397835365565
H           0.89910629393050   -1.80033548303971   -0.31350337401551
H           0.19670081288476   -0.56009843065525   -1.54147976446410
H           1.72872232502038   -0.76025916514659   -1.76917093417672
N           0.74838223541636   -1.93506938942020    0.77461604611560
H          -0.28781222500839   -1.86798304100083    0.91592898457357
H           1.06058132656580   -1.04753277241640    1.21885867557432
H           1.17229655865481   -2.76797571716118    1.16873136698747
