    23
        -45.37137317  Gyration_radius:  2.42270585884 Dipole_moment: 4.867
 S           1.05469507578122   -0.61907982912662   -0.12782693745275
O           2.60080064619151   -0.82858416223536   -0.03340538599071
O           0.50604444434775   -0.90018305214533    1.18919601687001
O           0.79954919727605    0.75379639196543   -0.53942170648101
O           0.54228201167684   -1.57037894998393   -1.12713006631350
O          -1.90672338004995    2.28904503956159    1.72702295482170
H          -2.00723690109276    3.23910331606570    1.80221799022453
O           0.67496976299866    1.71436443943693    1.95496523996308
H           0.86170016053665    1.65178678926609    1.00071287444240
H          -0.95502072786301    2.10017671101819    1.92641848743042
H           0.71076122941046    0.79055406896169    2.23593973835964
O          -1.84259448331798    1.15605653873754   -0.66795808687772
H          -1.98674903741060    1.64858841717780    0.17784570395027
H          -0.86926936981449    1.15762197683247   -0.79631596167608
H          -1.99690117447949   -0.26477148280114   -0.30017667847503
O           2.72826775721427   -1.43542575938890   -2.60741892766554
H           3.04288091169625   -2.32024427056487   -2.80631255455597
H           1.79617848379036   -1.52769107368711   -2.32674862564257
H           2.91720672373198   -0.92579469531533   -0.95707380486487
N          -1.78670477788485   -1.30793590401960    0.00333294357993
H          -2.60411088231793   -1.89876546241774    0.11051689290560
H          -1.19287743389080   -1.24393620945111    0.85541001301292
H          -1.08714824654070   -1.65830283789757   -0.69379014957853
