    23
        -45.37137321  Gyration_radius:  2.42265530849 Dipole_moment: 4.867
 S           0.44511904629815   -1.04356136961048    0.47440360881925
O          -0.24878575705658    0.01167531954742    1.19848696199190
O           1.23612688793304   -1.91333257044340    1.50449331844843
O          -0.51230590672263   -1.93026277065617   -0.20614190043498
O           1.41720451768601   -0.50667366086989   -0.46442851648367
O           0.33484931858478    3.37820177758248   -0.57383877352690
H           0.20872674292456    4.20915436452931   -0.11342909824285
O          -1.57947559165328    1.54573558204801   -0.54402622521379
H          -1.26903668658551    1.03320267085211    0.23361655482019
H          -0.97131094897598    2.32449681081098   -0.59239554642504
H          -1.09492329173054    0.63206687096043   -1.59632895436639
O           1.75310290773917    1.77483750144097    0.99551684954023
H           0.99934754005392    1.27535711392861    1.35873669077532
H           2.16440630682203    1.13123821728418    0.40366107829465
H           0.95604890866611    2.84846519797872   -0.01266812097897
O          -0.89163214688586   -3.42797501752608    1.93882460304691
H          -1.03488164593028   -2.94913916801309    1.09844591933622
H          -0.78925960170367   -4.35494233907203    1.71142394372836
H           0.57154368639740   -2.49083317492331    1.93745827465282
N          -0.56848674331536   -0.18084998989663   -2.13189013066968
H           0.43498850321138   -0.09276756699645   -1.87105403666442
H          -0.73566495241301   -0.21746638879501   -3.13159175795184
H          -0.82570109330563   -1.05662743019582   -1.61727473248067
