    23
        -45.35981401  Gyration_radius:  2.32636215456 Dipole_moment: 5.645
 S          -1.53658093418312    1.49477338458435   -0.01906961767555
O          -0.51780238071071    1.36093014644519   -1.18926044531266
O          -0.66988348091323    2.15560862846105    1.09163808970675
O          -2.59643914778486    2.33508200767170   -0.42831579814158
O          -1.88311976794335    0.16662033712769    0.43133676823278
O           1.43146819463063   -1.09334757294303    1.36544897547469
H           2.06991289537013   -1.77477150608422    1.57840596371351
O          -0.50835689191489    0.22075171635426    2.73524519533293
H           0.26964700001808   -0.28735148202957    2.43033140318332
H          -0.58063361831870    1.47647957259965    1.84115832431623
H          -1.26935983126947   -0.18492699222319    2.29551434565585
O           1.76184638273195    1.15916097448413   -0.02595604749459
H           1.69605322746180    1.87247258433694    0.61510829445374
H           1.75366399755476    0.31789382544704    0.48459073076123
H           0.40666098873597    1.26320561113829   -0.79715587700660
O          -0.37706046627314   -1.98327252287251   -0.21371017915012
H          -0.12118575425698   -1.80248197879716   -1.14890811311508
H           0.75029918657590   -1.51995208845980    0.74614113194666
H          -1.07779639350545   -1.33589505355545   -0.01696595750868
N           0.22562205855448   -1.11462864037640   -2.72023421750765
H          -0.14913620669219   -0.18343017579174   -2.56712718592844
H          -0.27363393134550   -1.52888886769029   -3.49714600341656
H           1.19581486347950   -1.01403189782702   -2.99106977051887
