    23
        -45.37137317  Gyration_radius:  2.42258573238 Dipole_moment: 4.868
 S           0.06173159071486    0.55479280941648    1.09546084950846
O           1.18581939582989    0.15812962199366    0.25963696935773
O          -0.50467261831556    1.83464960820160    0.64040938134560
O          -0.96080499636053   -0.47748971821662    1.15291222231195
O           0.58043495003584    0.76632646130975    2.55481393391582
O           0.17842129362372   -2.87643543217013   -1.88297875449889
H           0.84009175820883   -3.44852654774013   -2.27449912772679
O           0.84207985795787   -2.46553021609097    0.65383323780609
H           0.39342743382752   -2.83400712743587   -0.91682298338527
H           1.27580507563995   -1.60331741281277    0.51955477199518
H           0.02075542609984   -2.21908247299847    1.09915438191651
O           0.32076054213287   -0.25432530569944   -2.23849494703711
H           0.28638388880747   -1.24299566869078   -2.25134438919951
H          -1.01278963513656    0.15587002517930   -1.75977398899300
H           0.82958893996937   -0.03168395198687   -1.42893141535104
O           1.23585624051073    3.27416143834978    2.01431215585007
H           0.61252862872535    2.97466638775187    1.32309448476133
H           0.77413070660437    3.93985321233083    2.52923184567903
H           1.03606785476190    1.63519948385752    2.55675332300689
N          -1.85583205004748    0.46707992735381   -1.11356973085934
H          -1.51351494772085    1.32161308161220   -0.61294663998257
H          -1.88332007430854   -0.21649127382631   -0.32957775528417
H          -2.74294925160857    0.58754307024338   -1.59022783519428
