    23
        -45.37137319  Gyration_radius:  2.42263016846 Dipole_moment: 4.865
 S           0.72213957924336    0.97523227787387    0.19897731944032
O           0.82606655923955    0.07846707300712    1.33890947275968
O           1.06096167072508    2.41149623330359    0.71450019086660
O           1.71350348001758    0.63373678043843   -0.83377104512024
O          -0.62305352856645    0.99039393115613   -0.35749982222944
O          -2.60506246510126   -2.01655327773190    1.00054037734860
H          -3.56316046772753   -2.02681736084643    0.98375525454991
O          -1.82354705011391    0.33868764066650    1.94287091617794
H          -1.65259846058222    0.75547384907256    1.07880600166899
H          -2.35050030363570   -1.17504778461391    1.45700957462015
H          -0.93175504720572    0.19707335235593    2.28669318071566
O           1.91736448123878    3.12761604542964   -1.68628543059454
H           1.27312745742176    2.94197253237425   -0.08312493753089
H           2.84189536798184    3.38156672878795   -1.73373644463243
H           1.89797996078464    2.15042943914559   -1.65735129982727
O          -1.25063367661812   -1.46681138946536   -1.20991790425812
H           0.10857579899032   -1.86889103309002   -0.80144867887735
H          -1.83185309680962   -1.76712361550409   -0.46779167814453
H          -1.15158766882941   -0.49937708223723   -1.07510971932665
N           1.13340227102279   -1.86296399954001   -0.38338528008398
H           1.63424948097521   -2.74181471078729   -0.45729816747563
H           1.04377215739117   -1.50453107729355    0.58937821755017
H           1.61071350014795   -1.05221456250760   -0.84472010759869
