    23
        -45.37137317  Gyration_radius:  2.42260335331 Dipole_moment: 4.867
 S          -1.11179018163971   -0.52403299360970   -0.03937513196653
O          -1.78007951925140    0.49502627103263    0.78576988795118
O          -0.79601821013047   -0.00168697854872   -1.35922737368991
O           0.06920138384479   -1.04448894994496    0.63420931398278
O          -2.12386936863865   -1.69781521382749   -0.24225263369893
O           3.22898051094451    0.20027364088875   -1.17733604931189
H           4.07018280988258   -0.24608159445534   -1.06987591483231
O           1.37036179092145   -1.64121905360037   -1.62627657120741
H           2.58332469067800   -0.49918200708284   -1.45135039306742
H           1.04190056729888   -1.69630731269339   -0.71054927414205
H           0.65216307530701   -1.17937676450301   -2.07847747415720
O           1.84106066116455    0.93431596072503    0.95763479309986
H           1.27810096273671    0.13420471554881    1.03937536079226
H           2.47395028624975    0.72448023987403    0.22677689668819
H           0.84084893182196    1.82400434973273    0.33668519056052
O          -3.15334261289953   -1.29489178982586    2.16348136178786
H          -4.08221023867031   -1.05299724353065    2.17800982645485
H          -2.54589433489114   -1.84492785715320    0.63121368580927
H          -2.65943405678442   -0.48893010881373    1.91326948886479
N          -0.06719230543171    2.20666042195018   -0.16692597271713
H          -0.07260399863444    3.20497913968022   -0.34589765584134
H          -0.86682548787920    1.86717947322377    0.41910952711379
H          -0.19081534600651    1.62081363491695   -1.01799088844849
