    23
        -45.37137322  Gyration_radius:  2.42260291587 Dipole_moment: 4.865
 S          -1.18448827047301   -0.24431901969343   -0.22235306618415
O          -2.72697261480599   -0.12304962970139   -0.00019253242108
O          -0.58847552773486    1.07230390733601   -0.04732474153212
O          -0.68755391050269   -1.19791459585923    0.75658690547871
O          -0.97488596091716   -0.73721481579163   -1.59313866499573
O           2.49894860730710    0.78571633420305    2.23363834901503
H           2.85145032779062    1.55093292869440    2.69033057718567
O          -0.13372313708385    0.76431749549240    2.57121674765627
H           1.53793039858938    0.74642365947010    2.47070677510409
H          -0.36111917094050    1.17705911956394    1.71833657847221
H          -0.40421291931540   -0.15363855321539    2.43778352280325
O           2.06059922935427    0.89015487477574   -0.37784260972119
H           1.11880586233992    1.16592606962854   -0.34990784508821
H           2.35678787269360    0.90683083938319    0.56597260132151
H           1.84507790595039   -0.53940898538943   -0.67219803227676
O          -3.09431488679267    0.52766803506738   -2.54014317781379
H          -3.63830386904174   -0.08114357539589   -3.04506945512395
H          -3.08787418623349    0.27564911358830   -0.82085916812138
H          -2.21120950359229    0.11476897642526   -2.46435571571308
N           1.37644092433293   -1.53234506309348   -0.81103524141867
H           0.58766086148031   -1.36980713935990   -1.48135020501895
H           0.84780789895142   -1.72417107302995    0.06451466295373
H           2.01162407862068   -2.27473889310127   -1.08331626451632
