    23
        -45.37137318  Gyration_radius:  2.42273899988 Dipole_moment: 4.865
 S          -0.20361518658374   -0.18791349684342   -1.19817759826564
O           1.19551706444706   -0.49591393291118   -1.53529498398404
O          -0.29978396275200    1.08032994751403   -0.48988077399187
O          -0.99163238490957   -0.06529474185620   -2.54256033362502
O          -0.81076469738629   -1.27484264860945   -0.44682342957355
O          -1.22984762574699    0.42757428379182    3.18761247195647
H          -1.61020304108383    1.11812640830998    3.73243625273109
O           1.00428442231978    0.88904284679752    1.83890687217984
H           0.24156177252835    0.77295402275486    2.45817441274767
H           1.36389918816358   -0.48321175958105    1.43301482195220
H           0.59852145146800    1.17821619033041    0.99301926279147
O          -2.50987276714450    0.41348283746106    0.86237396352181
H          -2.37900347679595   -0.47257909558227    0.49988407603244
H          -1.79837190731888    0.37605315481255    2.37798723245514
H          -1.85579047440864    0.94153313137565    0.36956329745802
O           1.13827587015684    0.92978280951400   -3.76083219863402
H           1.47561177832770    0.40706814023880   -4.49191997602711
H          -0.41506973982924    0.44773120794261   -3.14832251577857
H           1.44261075421232    0.49166292045294   -2.94139238491118
N           1.43569391500298   -1.43822056786831    0.87847112742320
H           1.74266872711711   -1.16987647314569   -0.08685062550677
H           0.45609436778951   -1.73580618433559    0.69246032299707
H           2.00921593243839   -2.14989901054907    1.31815071606687
