    23
        -45.37137322  Gyration_radius:  2.42276206961 Dipole_moment: 4.867
 S           0.08713585196779    0.97942934496204   -0.73818537087442
O           0.12082560202547    1.72650180787396   -2.11086987247589
O          -0.26877865028429    1.96831067672634    0.29205010135452
O          -0.91262363716469   -0.07612479541445   -0.81219009598746
O           1.42109398896456    0.44676939840758   -0.51110580240136
O           0.57377663206165   -3.34708793322674    0.56975464367591
H           0.18966318653299   -4.19738760931002    0.35114352173703
O          -0.96352815137003   -1.40395923946662    1.51045726184666
H          -1.17047176771333   -0.96508057853397    0.65702857682571
H          -0.45405223606067   -2.21434175419809    1.26069603062977
H           0.06118732605763   -0.45375747919912    1.98444081557779
O          -1.83181474190689    3.34020295151394   -1.33997702258427
H          -1.45293358031912    2.92865173218340   -0.53803546765228
H          -1.60428783473848    4.27205399594149   -1.30266662781918
H          -0.66454053626048    2.31445328234587   -2.11807158674118
O           0.79930151833984   -1.94389076167382   -1.67214616361745
H           0.74575387675415   -2.89611302747642   -0.29531089389007
H          -0.01729684543302   -1.42358418481266   -1.56312242756121
H           1.48874423124051   -1.28927511724706   -1.49953978542109
N           0.81127092833481    0.35864720181270    2.02834927882687
H           1.27141226120758    0.47245506918215    2.92504237765263
H           0.30796158978446    1.21244686916188    1.68826444763996
H           1.46220098797132    0.19068015046735    1.23399406128546
