    23
        -45.37137317  Gyration_radius:  2.4225813788 Dipole_moment: 4.866
 S          -0.73910227477729    0.41052560207863    0.89265969205795
O          -0.63969348286306    0.93616728718580   -0.46128422421314
O           0.56927682898721    0.13121084349453    1.46234658663529
O          -1.40960157659926    1.49491665338009    1.79696342141218
O          -1.59724643144155   -0.78464525931656    0.92986473501789
O           2.90580853882464    0.30565208958448   -1.82083683300065
H           3.25146102591046    0.81156500450887   -2.55766142195692
O           0.54566591218894   -0.88245135792585   -2.02553221508366
H          -0.00485913633036   -0.16436009762895   -1.64458937063175
H           1.45679016919809   -0.50080882395564   -2.07906150057258
H           0.58172035036518   -1.76124481918311   -0.84098587836525
O           1.78972713128766    2.00022931443166   -0.10929862514687
H           2.59855249611047    0.97125592763697   -1.15462755584629
H           0.87174986881084    1.88068011801341   -0.41350983294072
H           1.78872082569863    1.54409563144940    0.74247711952172
O          -3.82260614978786    0.62664049412201    1.13877566182830
H          -3.18244018709943   -0.07795670118671    0.91556988083502
H          -4.35237107471955    0.29416612615323    1.86697009404823
H          -2.36844295526088    1.46340570111181    1.59140472324311
N           0.49072984850091   -2.15072276944609    0.19095427713238
H          -0.50956268851956   -1.98660614177333    0.45642381945000
H           0.96776703289365   -1.45645654106482    0.80186349937016
H           0.80795592860917   -3.10525830176833    0.32111398717698
