    23
        -45.35981436  Gyration_radius:  2.32613346429 Dipole_moment: 5.669
 S          -1.41619417533019    0.96190157925720    1.29582294944723
O          -0.13965252306440    1.47794271407954    2.02095485356118
O          -2.59205769134544    1.27840800662347    2.01266280083104
O          -1.34289863023034    1.39931888991029   -0.07908474267014
O          -1.20580879514453   -0.58068865556215    1.32718497453735
O           2.02917873433237    0.26047597968920   -0.95704089914565
H           2.73418870266154    0.02747899632396   -1.56198963340968
O           1.06235728913695    2.57989020582891    0.06833944854635
H           1.58333267504793    1.85527490011028   -0.33161644218243
H           0.22204910120971    2.58809159663566   -0.41221275237090
H           0.40457895361945    1.99078233602048    1.33418379404005
O           1.34495957256245   -0.87262144664634    1.35949624327097
H           1.69026380732895   -0.51927463005814    0.50836762711962
H           1.58583408686100   -0.23812011771496    2.04025678247928
H          -0.21429685300842   -0.76662923557494    1.32624868026734
O          -0.26728050488276   -0.15912455049484   -2.00840591857811
H          -0.79584727558754    0.44616266302221   -1.45789638775417
H           1.15828984097571    0.07437824337693   -1.44353540619021
H          -0.58084251109280   -1.06188436566745   -1.76434011957701
N          -1.20148529636671   -2.49938344633384   -0.98345374398574
H          -1.52116898178315   -2.07952317420291   -0.11602870245479
H          -0.54024293562271   -3.22799688078417   -0.74553357387060
H          -1.99725660028055   -2.93485961783747   -1.43237984191129
