    23
        -45.37152254  Gyration_radius:  2.43855256404 Dipole_moment: 4.154
 S           0.27315218596896   -1.16281874141855   -0.18451890535086
O          -0.02631772103588   -0.19579379240817   -1.24677014969765
O           1.11413215313555   -2.32084530799722   -0.81180699695490
O           1.08363515242925   -0.57206285639476    0.86010078926278
O          -0.97493826053224   -1.73732333549858    0.32769070073074
O           1.12146084335242    3.26391833139026    0.46133206404546
H           1.82161690231376    3.79671457677914    0.84092510662921
O           2.23926639762332    1.20907997842718   -0.79920721669811
H           2.21029889026285    0.57543117436876   -0.06394078303266
H           1.53523372445741    0.88414491514001   -1.38018528524568
H           1.57123747123693    2.57757721565591   -0.09266154680201
O          -0.21424329195518    1.52072403513180    1.94696127250390
H          -1.32975645702527    1.18170820093815    1.02237644756636
H           0.34393814996953    0.73416223164224    1.77637418771700
H           0.25621391377301    2.26761860901983    1.50113800320618
O          -1.06028176066092   -3.72229984697038   -1.39208849643925
H          -1.08533315256372   -4.56933034149249   -0.94130992513292
H          -1.28971128261234   -3.04424835264940   -0.72311663550143
H           0.47685454885394   -2.91839763247011   -1.25807422311053
N          -1.93362725563309    0.71230412723831    0.22984689981213
H          -2.80626839859532    1.18518931188688    0.02098767181766
H          -2.04635063687630   -0.28122495784965    0.50100610279587
H          -1.28021210586719    0.61577243752841   -0.59505907212488
