    23
        -45.37152238  Gyration_radius:  2.43854226294 Dipole_moment: 4.159
 S           0.41867536115921   -0.47221714125517   -1.03199813139060
O           1.10757873350185   -1.00135679308620    0.12681572745475
O          -0.77186163394118   -1.25218911964678   -1.38452574115219
O           0.05075485317367    0.93582834149077   -0.84412550941485
O           1.41848129622600   -0.55185521932421   -2.23034997303679
O           0.70010345016198    1.42570154137953    3.09893537895794
H           1.31329167927730    1.42042819055854    3.83526134846203
O          -0.47649769137295   -0.81038455320975    2.29444873744800
H          -1.50333963139539   -0.25405481712036    1.37212989559827
H           0.17889731156899   -1.07870324980005    1.61769816690756
H          -0.08102222161141   -0.01562623279092    2.73013242362615
O           2.11075069487294    1.39317881378910    0.84712676212064
H           2.12333919098689    0.43099957001298    0.71601623687357
H           1.47819509663132    1.68547674274969    0.17408794036833
H           1.25319425049371    1.52828077781517    2.28418365373219
O          -0.54771052495225   -0.88717058560627   -3.97733473045471
H          -0.49228727339701   -1.72552918146512   -4.44147514166841
H          -0.88401788537210   -1.08797563909854   -3.07932037611350
H           0.87695076033747   -0.51949275051584   -3.04765249132773
N          -2.01257651271086    0.13602478132553    0.47686931873134
H          -2.01828440596018   -0.63627693183549   -0.21344303361053
H          -1.31726327557774    0.79335372445541    0.02790651782789
H          -2.92535161211146    0.54355973117244    0.64861303006679
