    23
        -45.37137321  Gyration_radius:  2.42270085344 Dipole_moment: 4.866
 S          -0.57503256921378    0.29181709772040    1.04705593147462
O          -0.69596560365850    0.50464973740721    2.59091706748948
O           0.73616918567509    0.75728121771527    0.61869285315317
O          -0.75236480145137   -1.12997296196910    0.79868831226901
O          -1.64462878897209    1.07665665794190    0.40999926231264
O           2.34759504509223   -1.88474238289521   -1.67072004626219
H           3.29398621432486   -1.90026778808502   -1.82040010751920
O          -1.54624467185042    2.98667368331212    2.23521067363553
H          -1.65707454963044    2.51098813700628    1.38819629511063
H          -2.42944756057182    3.16910389581167    2.56410924189884
H          -0.86762441573841    1.46209288180175    2.71933442841927
O           0.99132924648288    0.36571730655507   -2.01580934997687
H           1.55645087436454   -0.44628562029301   -2.01885590726276
H          -0.39203670330493   -0.14669754092154   -1.99276572060702
H           1.02929155017870    0.69408711279301   -1.09136541158717
O           1.93005251735527   -1.61582955934386    0.93667540630173
H           1.04175465155232   -1.96204834866612    1.09379035426140
H           2.22772680362914   -1.89565463971820   -0.68746856736384
H           1.78260293063753   -0.65271700934726    0.92952266273948
N          -1.38849974323558   -0.48832899876558   -1.65343165488921
H          -1.77094844606609    0.30689704459102   -1.08835408407646
H          -1.21134406655535   -1.18831985602472   -0.90411705245456
H          -2.00574710901716   -0.81510005675207   -2.38890459706229
