    23
        -45.35981436  Gyration_radius:  2.32610881365 Dipole_moment: 5.670
 S          -0.13025474042733    2.14258742659825    0.05470765693879
O          -0.20625848253298    1.35979115988982   -1.28927671166456
O           0.06169533221941    3.51440145153559   -0.22453551065767
O          -1.53310257658803    1.86779149379955    0.66963653831069
O           0.84899088736009    1.49688632266929    0.89805266753697
O          -0.58846581235536   -1.86755228134578    1.12556269672027
H          -0.56752827552688   -2.80744842113316    1.30841977210193
O          -0.87451337824723    0.37754515021811    2.62335925383984
H           0.03263151574473    0.70347521351428    2.53413587492728
H          -1.38638726496023    1.31063496222131    1.50566528723647
H          -0.86521336686267   -0.52386752070201    2.24412464131354
O           1.71443108286991   -1.01540785056677    0.40057687681962
H           0.35337507066475   -1.60550597741935    0.85352612263186
H           1.77816614865257   -1.03694879638788   -0.58347020350038
H           1.60148575216675   -0.07382561086657    0.62300768770146
O          -1.85588646533230   -0.55061454473835   -0.81810875869916
H          -2.56503638582763   -0.06738806395286   -0.38493210323535
H          -0.83323328749290    0.57894152057850   -1.16752018848230
H          -1.44720287525278   -1.12749535988836   -0.13349960036564
N           1.65793188089870   -0.76355456173806   -2.30745317921206
H           1.17942422258249    0.13179165010621   -2.29006412305269
H           1.08901721789383   -1.40437365231200   -2.84635660506140
H           2.53593380035320   -0.63986371007970   -2.79555810214704
