    23
        -45.35981436  Gyration_radius:  2.32613517501 Dipole_moment: 5.669
 S           2.06112082930743    0.43183329205222   -0.41858314798730
O           2.26394535416955    0.05226755994688    1.07689086546729
O           3.24094933185940    0.95674550505656   -0.99231609266624
O           1.45415594290330   -0.70173878623289   -1.07713793456669
O           0.99808099470756    1.56579859074272   -0.32412111591230
O          -1.34574935452285   -1.36567424874235    1.19405136801707
H          -2.18950903507347   -1.74626971911015    1.44001258401733
O          -0.32303347463363    1.02064492864122    1.80898879728553
H           0.42977480769234    1.40178433091962    0.49306062699297
H          -0.78158740232581    0.16314367283502    1.65761587932069
H           0.39684067719726    0.84485716815932    2.42130300693794
O           1.21305379225331   -2.26444212817065    1.09075750076186
H           1.30007674979792   -2.28269912857525    0.12681046914212
H           1.91953142741199   -0.89596395471236    1.19143698062843
H           0.26516853108646   -2.09617888920835    1.26294688798231
O          -1.22804806019642   -0.92936940961409   -1.32606636486562
H          -1.51245359715088   -0.00370143984910   -1.51340990676443
H          -0.25961572305541   -0.91901254481015   -1.43024712498902
H          -1.37284635291164   -1.22919661927863    0.18888769938695
N          -1.66667214678775    1.72917868523922   -1.70004979875098
H          -2.28448563429873    2.21748908568165   -1.06397134286443
H          -1.86405275174764    2.05457755521706   -2.63791300348940
H          -0.71464492567897    1.99592649380929   -1.46894683308365
