    23
        -45.37137315  Gyration_radius:  2.42273180815 Dipole_moment: 4.868
 S           0.60075734139364    0.69762356118897    0.81508967706785
O           1.56971866802782    0.09673318890168   -0.08731417559300
O           0.11557122995268    1.98364247944533    0.28887891486464
O          -0.50990014755278   -0.20129885772522    1.09413086413150
O           1.34707423823680    0.99365186067192    2.15622966354836
O          -0.51162434954162   -3.07175752966424   -1.47104814432344
H          -0.97090389921862   -3.89365049767770   -1.29240682542923
O           0.90352846256649   -2.43562385917294    0.68280217378161
H           0.08855480344238   -2.92245480857376   -0.69722457606437
H           1.60385095242057   -1.84872731786409    0.36848402051836
H           0.25913710655251   -1.81051622588583    1.06148772784308
O          -0.30727815350674    2.98867701881287    2.69727050273320
H           0.79171024635678    1.64417862864118    2.63690825653904
H           0.10141047416440    3.85458092157332    2.76582733559523
H          -0.38306289336983    2.79112099228941    1.74268653402431
O          -1.78176147935732   -0.76242273632291   -1.19168697421950
H          -1.52609961723578   -0.57480101684691   -0.26252387499348
H          -0.83180810290429    0.15244420107195   -1.85245158463898
H          -1.42466875475623   -1.66667866079244   -1.37449498701449
N           0.01058760100832    0.84334563971688   -2.04770747522721
H           0.09307949099144    1.16245143704160   -3.00690748806547
H           0.86106273898621    0.36799683521045   -1.68277890915325
H          -0.09893593668671    1.61148474598204   -1.34325066595063
