    23
        -45.37137316  Gyration_radius:  2.42284546363 Dipole_moment: 4.868
 S          -0.49049821067874    0.97155233006780    0.57219975057888
O          -0.68641760994285    1.77249413577112   -0.64686750113391
O           0.91885973317301    0.88782940214406    0.92043651103629
O          -1.20702831733075    1.71969222159386    1.74268684944891
O          -1.09261362142897   -0.34620061014545    0.42995654551221
O           1.68184829761837   -3.00227439866302    0.15993530967988
H           1.50124063759629   -3.92524055469245    0.34390233596894
O           0.61026258250221   -1.55021881249122    2.10657614156935
H           1.36915726841132   -2.50057166277363    0.95485522439322
H           1.09237862879926   -0.71275742998529    2.10002914453030
H          -0.21332008604268   -1.32243672338792    1.63848419443477
O          -3.08177473942447    2.60737546475617    0.09717339945008
H          -2.06636990904269    2.02611939582888    1.38180514316001
H          -3.13629296346749    3.56194189949941    0.01129217570875
H          -2.32096169624153    2.32163006269279   -0.44647483441273
O           0.14477322750547   -1.66907139220133   -1.53868640499215
H          -0.49299926296196   -1.30086100385532   -0.88933078647634
H           0.95356379358258   -0.45216657339085   -1.74158077782155
H           0.72607780343665   -2.26956794682168   -1.00954702519705
N           1.39476182979599    0.55652206091160   -1.62776945821898
H           0.57690156994727    1.21149668454912   -1.61714826373185
H           2.11221971524461    0.79236456710079   -2.30477613496712
H           1.70623131892335    0.62234887350497   -0.63715155853218
