    23
        -45.37152239  Gyration_radius:  2.43835085584 Dipole_moment: 4.156
 S           0.33454711668821    0.14732957994342    1.15290459334198
O           0.68382072216562   -0.36965673560100    2.58561830517397
O           1.02618647134937   -0.70978100413806    0.18292888132940
O          -1.10390639001121    0.05700446218205    1.01193236624693
O           0.82686436354936    1.52349963908721    1.03656987810022
O          -1.97449574588325   -1.69621208744609   -2.31206528710859
H          -2.82409003826861   -2.11917990020929   -2.44419708769594
O           2.79154630626368    1.22973591077904    2.75661834862090
H           2.72011040221290    1.86216816100876    3.47512612095202
H           1.56918023588673   -0.00805376471376    2.80397365504199
H           2.20516234739389    1.55359045909060    2.04164845173631
O          -1.03044105692035   -2.45965534183970    0.05147504865283
H          -0.08708125096760   -2.24419484559997    0.00320652560749
H          -1.38482747656303   -1.72347123692530    0.57634196195781
H          -1.60124483925030   -2.08760919818325   -1.48266948469612
O          -1.82436960304039    0.81299053045122   -1.46869616411645
H          -1.77505280597843    0.63520323939219   -0.50666594866788
H          -0.37990244568665    1.08531448570737   -1.69862756642405
H          -1.97649008488006   -0.07205099512330   -1.88289250746331
N           0.71168278089480    1.15441547680305   -1.56834005341438
H           0.86859824814709    1.78820888114194   -0.76447849467549
H           1.22593160196532    1.41171115660097   -2.40384737919905
H           0.99827113090549    0.22869312759022   -1.14586415329437
