    23
        -45.37137322  Gyration_radius:  2.42273937503 Dipole_moment: 4.869
 S          -0.29359919826086    0.55168719987058   -1.05829317114432
O          -0.00173235218615    1.25975832143854   -2.42094133413404
O          -1.66253048401283    0.01559686164635   -1.12566353668406
O           0.67538194526024   -0.51973758187031   -0.87843053894625
O          -0.18018393550534    1.56395776566202   -0.02035359142389
O           2.14101994579240   -0.33915793488264    2.67590757397889
H           2.97418412459966   -0.76203872515419    2.88876490757878
O          -1.50367901911257   -0.49511799224027   -3.71481237495784
H          -0.35844352296095    0.66623452889169   -3.11602549019715
H          -1.73888534779322   -0.54524313652946   -2.76709483245287
H          -2.26674710923850   -0.12797411356402   -4.16696771581955
O           2.45659884794903    1.00590833608733    0.40940800670032
H           2.08195905964606    0.32567102859621   -0.17910172705515
H           1.76692001446038    1.68269579355088    0.41203054970617
H           2.32240735706940    0.23930122407469    1.89244119009806
O           0.22907682466127   -1.72283422544657    1.46979419176963
H          -0.91517196113092   -0.80497837679162    1.63244197805078
H           0.45592024390595   -1.49338588256570    0.54262836436236
H           0.95057514702707   -1.31986545949968    2.01348198076927
N          -1.65052422678955    0.00703256285689    1.47669281101913
H          -2.03247142299442   -0.15262745537153    0.51411974596490
H          -1.09302357106444    0.87182562689530    1.32072350955959
H          -2.35705135934204    0.09329166422495    2.19924951364266
