    23
        -45.37137317  Gyration_radius:  2.4226455711 Dipole_moment: 4.866
 S           0.29949928579555    0.68824891071444   -0.97464297809174
O           0.89888209288282    0.75258237834637    0.35053392490194
O          -0.96611653862146    1.43825808450197   -1.01503084677321
O           1.27509677299033    1.36312273163124   -1.99243767698557
O           0.10708199066117   -0.68403266157201   -1.41554373971023
O           0.64895174611563   -2.69737372717624    2.04079906160845
H           1.22052084854485   -2.93068029361429    2.77371070456038
O          -0.72948316602849   -0.43493026151610    2.11014053710290
H          -1.65959433583544   -0.64831513373978    0.98542968333533
H          -0.26766755003299   -1.30301644869724    2.21938385121771
H          -0.08186258239843    0.13670188479593    1.64355453551420
O           0.23536540104851    3.74527064994234   -1.48793926600048
H           1.17084143238170    2.33047225795723   -1.86597779617303
H          -0.17788279953243    4.18122858215494   -2.23674782785634
H          -0.39934770112827    3.07172290532959   -1.17248209590225
O           2.14912706912532   -1.60389419845592    0.14359141322010
H           1.24989541033133   -2.39776494867163    1.31250448275420
H           1.65030648786704   -1.71374282957468   -0.67670248091562
H           1.96840025420880   -0.67531524676865    0.37696729402828
N          -2.10691529122892   -0.68150308287810   -0.02650780587918
H          -3.03596873514472   -1.08558531221636   -0.07436636353802
H          -1.40602230374471   -1.15287685757641   -0.63397286349824
H          -2.04310777829213    0.30142261708013   -0.38426376692538
