    23
        -45.35981436  Gyration_radius:  2.3261353507 Dipole_moment: 5.669
 S          -2.12966256301043   -0.27030757447741   -0.03720735217448
O          -1.15694756027962   -1.48458302227690   -0.10212086057521
O          -2.03359046173034    0.14229138631662    1.46018509514853
O          -1.56433397786129    0.80296369060524   -0.82179571847879
O          -3.42944883450781   -0.70587484321156   -0.38003985091257
O           1.63737704812974    1.26774744646804    0.90203992777205
H           2.53809784532730    1.58245090845076    0.98536984143261
O           0.56030567228835   -1.02136683773727    1.74967861337798
H          -0.44149982629349   -1.35679304984721    0.59749524134373
H           1.04904519807137   -0.20525253878285    1.49751824754077
H          -0.02356453098485   -0.78109467027067    2.47453319544931
O          -0.82239495787255    2.36734545025727    1.22812712762895
H          -1.07778759261204    2.38089691608425    0.29448354430302
H          -1.60258209506998    1.06118929379261    1.48744420566647
H           0.12525418355997    2.12575920100218    1.23481544572039
O           1.04028417608595    0.81192759128340   -1.54559491508818
H           1.21497233902094   -0.13574395997239   -1.75594708211952
H           0.07086703825757    0.87794761764440   -1.47708445306729
H           1.47474677137501    1.11742571368494   -0.08824832081513
N           1.20013992689420   -1.87753364627000   -1.92160145178676
H           0.28677304143048   -2.06433781870799   -1.51938046425406
H           1.88190920622043   -2.40606962986810   -1.39190798946362
H           1.20203994356207   -2.22898760417200   -2.87076202664110
