    23
        -45.37152239  Gyration_radius:  2.43847699832 Dipole_moment: 4.155
 S          -0.82189096186704    0.83320044526601    0.30443535316172
O          -0.02061358787513    2.01929794436906   -0.01417845518358
O          -0.09592656868808   -0.01310057862267    1.25828530600657
O          -2.13941068508157    1.31382403965851    0.99386401609493
O          -1.21118197661414    0.09109830910151   -0.87660148886419
O           0.66837318786724   -3.27575234879803   -0.97533019291307
H           0.33411493503410   -4.01658374935098   -1.48296877083953
O          -1.34613286440732   -2.26192269544634    0.42985403711777
H          -0.90842809924024   -1.72775704732481    1.10946148855729
H          -1.62657069428589   -1.59033931907634   -0.21307320609815
H          -0.07301986083981   -2.99557237825840   -0.38187998445595
O          -0.96274432717606    3.48937823124105    1.94957423434533
H          -1.35548799177030    4.29978341364411    1.61743480632914
H          -1.89294362522085    2.06756520349778    1.57120252629510
H          -0.41602076388344    3.12661257646137    1.22197389473802
O           0.97691543956360   -0.89316305766383   -2.09684434482382
H           1.75798013859114   -0.19780982566053   -1.03857430112213
H           0.93614845097758   -1.83405735019102   -1.79502661244370
H           0.09738015344428   -0.52085684155229   -1.87958227663221
N           2.03326045777972    0.37820104066544   -0.14095611216305
H           3.02212779703242    0.37114894093377    0.08454698179495
H           1.40710813661937    0.01031389689609    0.62650131679130
H           1.63696331000985    1.32649115024946   -0.27211822565921
