    23
        -45.37152249  Gyration_radius:  2.43851250081 Dipole_moment: 4.155
 S          -0.66158583826362    0.94182246263615    0.36881875061175
O          -1.31592630487228    0.19608879219517   -0.68614738415229
O           0.20800161078938    2.00338115272310   -0.14773314345691
O          -1.78914388309682    1.61336459424789    1.21716667139022
O           0.10623602657309    0.06041512160202    1.25596886783469
O           0.12685760203529   -3.37706688575839   -0.83893166091486
H          -0.36576399777117   -4.09552246889434   -1.23817363886235
O          -0.23957161131395    3.67601673392830    1.82869181085927
H          -0.58753241130153    4.50960672943240    1.50407149555136
H          -1.37067173024446    2.36038417186743    1.69582478418600
H           0.14079382835096    3.21267558810929    1.05371724231481
O           0.52289250792037   -1.10975135735954   -2.15491167094662
H           1.53663337766504   -0.46460432074087   -1.27799095356794
H           0.42356700277123   -2.02219021014637   -1.78655491002045
H          -0.26247410711228   -0.62139059758879   -1.83213203653044
O          -1.51027861500810   -2.05421941992582    0.78271188950587
H          -0.91191928301058   -1.54668450316011    1.35110900670760
H          -1.80922756758890   -1.38469708022043    0.14595877657975
H          -0.47428692901807   -2.97835733003913   -0.16064335345223
N           2.01569843590874    0.11654764078963   -0.47408840770915
H           1.71801550641926    1.09934699747964   -0.60921627783101
H           3.02004071856687   -0.00427507773150   -0.40010616137889
H           1.47964565159726   -0.13089074346139    0.40259029327520
