    23
        -45.37137325  Gyration_radius:  2.4228784369 Dipole_moment: 4.864
 S          -0.61229453957342   -0.59819395853962   -0.88288014279926
O          -1.54586720092159   -0.24563316203239    0.17490757343438
O          -0.51424588194306    0.47867084991392   -1.88121070144822
O           0.70127943945772   -0.93799480146534   -0.35510469386517
O          -1.19539199383796   -1.85476402603422   -1.60695668843719
O           0.96253544442030    0.25060385157589    3.29730880083323
H           1.61674549665672   -0.11954297903801    3.89178539064473
O          -0.21813398328673   -1.75524260104672    2.02100721238795
H          -1.07194085499851   -1.40971261672157    1.72893226825317
H           0.31838215300444   -1.70493176450338    1.20918204246351
H           0.46800699447650   -0.52176899571898    2.92293664444111
O           1.70809174881861    1.18166082337636    0.93072672923324
H           1.55987446056535    0.36463355542204    0.40693756840364
H           0.48750671887804    1.90582178190581    0.52720454863114
H           1.54003468521696    0.91466021640816    1.86836874065829
O           0.02773266591150   -1.18969388386898   -3.85909988909041
H           0.00167595147719   -0.39505907601766   -3.28996245388004
H          -0.73517430573107   -1.90627465129350   -2.47196323284538
H          -0.55089375011176   -1.01174406219461   -4.60409152910000
N          -0.50848798905917    2.15184367526519    0.11213602761193
H          -0.46932431376458    1.84552272163313   -0.88911581401556
H          -0.80587184896409    3.11229161445770    0.24551718557058
H          -1.16423910670121    1.44484748852651    0.50343441290959
