    23
        -45.37152226  Gyration_radius:  2.43905030286 Dipole_moment: 4.155
 S          -0.01642884581323   -0.99653663455593   -0.68499524137546
O          -0.61411691129470   -0.39715046376272   -1.88234385731460
O          -0.88789207230877   -0.76503296421333    0.47259339079942
O           0.07790096408391   -2.53927184931221   -0.91499265950571
O           1.33056649669393   -0.52421644491126   -0.43985710464989
O           1.37177121183315    1.70850040380401    2.70637985994362
H           2.17547004786725    1.85880002530387    3.20612024204873
O           1.29193605703895    2.11534577283366    0.08740638329755
H           1.52082991198949    1.20839384820484   -0.20307566244064
H          -0.17547587124075    2.03813223329283   -0.14727722100210
H           1.38421198947783    2.09787988860299    1.07180866596632
O          -1.99865893477649   -2.52398438558809   -2.56329083285361
H          -1.65752656600114   -1.60975552812311   -2.47530487511246
H          -1.77108195470605   -2.81578842452409   -3.44899262952645
H          -0.73312792853818   -2.79921507574030   -1.40187887534797
O           1.17049919119871   -0.89642629852198    2.22276732818974
H           0.23672586154140   -1.01904229707126    1.99626542389808
H           1.59771573374493   -0.89913567230834    1.35051668998367
H           1.27038510543303    0.72563368533542    2.64237004289478
N          -1.19110574231118    1.66042967522243   -0.34437423334948
H          -1.16314405019547    1.23015840391221   -1.28622492304521
H          -1.93134644291597    2.34329686927170   -0.22396685956716
H          -1.28810727078369    0.79898523282441    0.26034693806807
