    23
        -45.37152257  Gyration_radius:  2.43840039898 Dipole_moment: 4.155
 S          -0.58083476212018    0.81382422770415   -0.67987317705283
O          -1.20340853943562    0.64461650668470    0.61663356795336
O           0.46020491028020    1.84661998749491   -0.67450734511681
O          -0.02343301017179   -0.44836105035852   -1.17922530664864
O          -1.70361670527817    1.26776583905772   -1.66740649346283
O          -0.18526419462577   -2.76442310705171    2.10719360264267
H          -0.71254907355149   -3.19173531806550    2.78367705118613
O           0.61255681366436   -0.25194417850137    2.38979745354524
H           1.59685523626787   -0.15934968641445    1.27802784063068
H          -0.13893581840211    0.18581976007727    1.93921591114031
H           0.36718781634838   -1.20947531783642    2.42109201306071
O          -1.81972334223663   -1.94207849584195    0.18059084811908
H          -0.80468662295398   -2.57368296600460    1.35856878910042
H          -1.96841782367588   -1.04161870883217    0.51243641792184
H          -1.22937054460052   -1.79014715754946   -0.57256428773189
O           0.00845801493671    2.66840508573315   -3.12916532499440
H          -0.19999418268419    3.60520992901173   -3.14750481380129
H           0.41106927974345    2.49001279083148   -2.25395974284873
H          -1.25169304945226    1.69713849572551   -2.42486298277762
N           2.05294849415672   -0.01574498436098    0.28571808006079
H           1.40268390319319   -0.50199724135689   -0.39038533400251
H           3.02299464535560   -0.30355630004213    0.21563520160335
H           1.88696854523301    0.97470186991210    0.03086803147144
