    23
        -45.37152254  Gyration_radius:  2.43842457989 Dipole_moment: 4.156
 S           0.26676592558168   -1.17358429572979    0.11632183716731
O           0.03474571272097   -2.69527494040866   -0.15285612791210
O           0.81405204339154   -0.60936904051563   -1.09990229466132
O          -1.02845504807635   -0.57226427630697    0.45438681760080
O           1.18148306344926   -1.05098690141182    1.25581729131251
O          -1.13114322273075    2.58729852736723   -2.03642362943761
H          -1.13528197381433    2.92283257847002   -2.93396144539775
O           1.15165230526714    2.04460101782252   -0.80188787480628
H           1.22480152170808    1.10008397208911   -1.05066139685296
H           0.36193793561710    2.37700330929623   -1.29576170502541
H           0.66202267253732    1.85012941110308    0.58982694952731
O           0.47415656581876   -3.31471256066494    2.38711869046339
H           1.22993767217293   -3.89535122157660    2.50115976180451
H           0.83425698886109   -2.42042482244259    2.21246106148229
H          -0.00640996456449   -3.13046287725040    0.72539843021385
O          -1.60680626752220   -0.02502114201466   -2.12872549352221
H          -0.68324524762609   -0.32387038496837   -2.15589137182056
H          -1.86849611459716   -0.24362529887771   -1.22182103961315
H          -1.42192905184932    1.64270820618375   -2.09701090971499
N           0.25366990433137    1.39962837281193    1.50813283594707
H           0.02558680267625    2.06031081394491    2.24313145408327
H           0.92564518880054    0.66501736988194    1.79450887532545
H          -0.55894740214967    0.80533417319260    1.18663929383410
