    23
        -45.35981436  Gyration_radius:  2.32612732858 Dipole_moment: 5.670
 S          -0.07938681760289   -1.37552175600517   -1.64688030162690
O           0.93024928248456   -2.19118020398136   -0.78839284258358
O           0.63956061352924   -0.00004937664736   -1.77346716800654
O          -0.23958098586871   -1.92901204601541   -2.93710472658319
O          -1.27336042068498   -1.18928517995926   -0.85515327362610
O           0.18501357794751    0.10601555777327    2.24850281673363
H           0.16189164261335    0.55129903743810    3.09613028440854
O          -1.62929152215961    1.00581069802571    0.68200070674595
H          -0.56079775494545    0.50878493351928    1.69059464768322
H          -1.25432294396506    1.72884974291593    0.12569083323393
H          -1.70102169454181    0.24125038359275    0.08273376710454
O           2.06440769376391    0.16921214695097    0.35583876459693
H           1.21052953806360    0.13706929793951   -0.95319763521413
H           1.44528710473350    0.19997048043787    1.12020815175637
H           2.47132343588904   -0.70164268683991    0.36457074895383
O          -0.39413675196934   -2.39711499941484    1.37388692681146
H          -1.19383392577215   -2.17345202872161    0.87632997753939
H           0.47807321767583   -2.38084370315490    0.10066245218191
H          -0.16416821723596   -1.58832966897459    1.87330764217102
N          -0.41480957046249    2.71729601866964   -1.04885120251803
H          -0.99787398244641    3.32818034812499   -1.60677454236203
H          -0.06550830280066    1.97922759602856   -1.65229638136285
H           0.38175679375497    3.25346543829938   -0.72833966603876
