    23
        -45.37137325  Gyration_radius:  2.42258435276 Dipole_moment: 4.870
 S          -0.99143525432228    0.25791412669691   -0.67879197352548
O          -0.04425322301889    1.21683224981321   -0.12868404768158
O          -1.34158875397019   -0.77181415334384    0.28644058203230
O          -2.31093850506982    1.01552024150253   -1.03759317510869
O          -0.47413235131751   -0.33709484650252   -1.92139411639761
O           1.50647286928598   -0.21889427016151    3.08830911707533
H           1.92267688971991    0.35336922612826    3.73452728653435
O          -0.81951554323960    0.86403000730406    2.40785138081875
H          -1.35392897391892    0.13476532374597    2.06688927862244
H           0.60004674444096    0.15250719542518    2.94056513940570
H          -0.50894282101571    1.29686079992661    1.59204187418237
O           2.21011964753255   -0.06050026119604    0.53810925626981
H           1.52718411399537    0.58117334776332    0.24529184483839
H           2.09168936327020   -0.12584913630726    1.51809511143988
H           1.58089038903871   -1.28430096812360    0.00627703389636
O          -1.35969317108216    1.64774897802347   -3.42650862120747
H          -0.82019719155685    0.91058014436815   -3.07788214112859
H          -1.85333443741640    1.29702069738673   -4.17135670941640
H          -2.13003842428239    1.49100929226262   -1.87644856169510
N           0.85344610339914   -1.99966327251986   -0.42273177835483
H          -0.00534477938113   -1.91766404880502    0.15908310353552
H           1.19386508720851   -2.94917610491281   -0.52884494763533
H           0.52695221172721   -1.55437455847617   -1.31324492646169
