    23
        -45.37152225  Gyration_radius:  2.43833582992 Dipole_moment: 4.157
 S          -0.81774806280279    0.71891065665861    0.52839742450203
O           0.54724484805299    0.49852066892109    1.01996456454713
O          -1.31947192389636    2.08420133069158    1.09965466113906
O          -0.85224496054358    0.82803567581025   -0.91523779954075
O          -1.70238095378716   -0.33493003408737    1.03533727162336
O           2.50734520095502   -0.37047008048986   -2.38821276663270
H           2.79521393069683   -0.09651294501498   -3.26018496207431
O          -2.33263190600895    0.92083455231775    3.25609754210677
H          -1.60930100167603    1.91071729757566    2.02064351741101
H          -3.28239179581021    1.03904950822181    3.32931046841501
H          -2.18934550883277    0.24016865538954    2.56610133663362
O           1.66184565088679    1.78321002984649   -1.08168198750573
H           0.72245852939212    1.71862752155999   -1.31926335867088
H           1.66011630629088    1.50453183943594   -0.15374714522936
H           2.30842560008023    0.46306908273861   -1.89224585525887
O           0.10534710508346   -1.43141971078740   -2.02154405299977
H           0.24552781039828   -1.93653407071792   -0.62907473533838
H          -0.38274317903374   -0.60742181357618   -1.81605530289465
H           1.01542542678271   -1.13307182313022   -2.26811264963815
N           0.25504862292288   -2.00241053247446    0.47035981242994
H          -0.72090132749986   -1.84366728512018    0.77903489402911
H           0.71080547108880   -1.10636895666969    0.79660545999847
H           0.67435609727356   -2.84706957708247    0.84385369296417
