    23
        -45.37152248  Gyration_radius:  2.43870764344 Dipole_moment: 4.155
 S          -1.03747544014287    0.34226292285361    0.51874716168702
O          -2.04488492279269    1.40308895629279    1.06812490177576
O          -0.56553042935717    0.80406622313455   -0.79174015019422
O           0.04683515658368    0.25658373293586    1.47481107904177
O          -1.75628810695760   -0.92670053371130    0.36677258378003
O           3.42807343118567    0.49721633677220   -0.36766957080746
H           4.22511069483363    0.76603948277856    0.09137106552397
O           1.91522592456681   -1.46249908309652    0.58106747776505
H           1.30526306629019   -0.91989766604895    1.12231280131356
H           1.01067591847991   -1.68849322563094   -0.57811237299523
H           2.59231240556292   -0.82489360370607    0.24477065225621
O           1.48928668196615    2.19451502155096    0.28094500442148
H           1.12832643625285    1.69727434954844    1.03290879632819
H           2.76190279972360    1.20953365869110   -0.19681146743885
H           0.81803098522353    2.05134203104844   -0.40297346891735
O          -4.10893398239583    0.16771377092325   -0.04749846707212
H          -4.75102213498689   -0.13807729067522    0.59711735659802
H          -2.90379650301688    1.22582732130864    0.62877716990177
H          -3.35293149874565   -0.45397406064504   -0.00360625587424
N           0.17176441604052   -1.61520637770868   -1.28825863998101
H           0.01650825150609   -0.57904750482555   -1.42635974019769
H          -0.68110022037727   -1.86684468118496   -0.75683681171678
H           0.29264709058779   -2.13982978063307   -2.14785908520032
