    23
        -45.35981436  Gyration_radius:  2.32612701061 Dipole_moment: 5.670
 S          -0.32219654526897    2.07218106361120    0.46135953416935
O          -0.25568427166892    1.57041177494699   -1.01127002738545
O           0.66306266477905    1.34714387927668    1.22991407377183
O          -0.23739166624476    3.48265727448327    0.46887128520089
O          -1.72657554739173    1.57433966279445    0.91028828813393
O          -0.48113153309457   -2.09420431653341    0.69575937751044
H          -0.38704744749583   -3.04731739524626    0.69300111329066
O          -1.04588861088675   -0.22217389297149    2.57793841025136
H          -0.16764770619008    0.18300401129536    2.61828738735668
H          -1.57680447809305    0.87401933002823    1.62999580552953
H          -0.93623758627218   -1.02620116546703    2.03208341779635
O          -1.75274264900250   -0.51545345815391   -1.03884422201669
H          -0.81667049958633    0.73555688612276   -1.08846025071560
H          -1.33233322064973   -1.18481105930443   -0.45255634317291
H          -2.52438892324326   -0.18401724378214   -0.57112913096584
O           1.77335675426723   -0.94180246094263    0.31560092838084
H           0.44721964010121   -1.71223360065713    0.54749769084811
H           1.89214741461328   -0.76125267251716   -0.64677030412344
H           1.56554165116181   -0.07505529064355    0.70851265357320
N           1.84212332369432   -0.15832837179887   -2.28851977880934
H           1.28572025639074    0.67624850524353   -2.13104003492303
H           1.36262219289443   -0.71986986732371   -2.98095984445690
H           2.73094677718667    0.12715842753970   -2.67956001924269
