    23
        -45.37152242  Gyration_radius:  2.43858046299 Dipole_moment: 4.155
 S          -0.90084835842551   -0.66739702758997   -0.45380979664057
O          -0.82369139585108   -0.19796168528231    0.93456695663429
O          -1.50451590761698    0.37128835944701   -1.29450357912453
O           0.39273691995527   -1.09717934535510   -0.94271603199472
O          -1.83754992798247   -1.91775517032088   -0.48668626998175
O           3.15508767998122    0.10075690494104    1.47140367896936
H           4.01166172557955   -0.32798660704255    1.49759347696542
O           1.28577411948831   -1.78754162544044    1.50519022632754
H           1.18068131830342   -1.88399888717136    0.54475432049359
H           2.48648888704876   -0.61792764604487    1.60099280792026
H           0.48038451170578   -1.30959615566737    1.75422701948995
O          -3.98244697502256   -0.42500217531465   -0.93391752535516
H          -4.40643367507916   -0.62658816928047   -1.77117079320780
H          -2.75751643630806   -1.57706878337986   -0.48794847561122
H          -3.18212629985970    0.09878427571295   -1.14624294082540
O           2.13518117593576    0.95057345155587   -0.82376065092152
H           0.99420191074164    1.76414103017293   -0.32369822867396
H           2.63787715478014    0.70497490986454   -0.00828853368719
H           1.63091954099948    0.14491560059586   -1.06077999305712
N           0.00029237079288    2.07284324234065    0.03685675142703
H          -0.04748528252425    3.01877147719721    0.39973192368724
H          -0.28778016073837    1.32481695559967    0.72589829419707
H          -0.66089287591068    1.88413707044004   -0.73769266702862
