    23
        -45.37152245  Gyration_radius:  2.4384184304 Dipole_moment: 4.152
 S          -0.52819666553571    0.72535649504266    0.80967031893426
O           0.36490290990647    1.45021717149845   -0.07011630937550
O          -0.02511889710383   -0.62272132440160    1.09744152375347
O          -0.58058204386374    1.51680771074395    2.15604618598784
O          -1.89381016915228    0.64150134270790    0.28207275529181
O           2.91483393519385   -0.98913037426707   -1.62658208468153
H           3.75185766176703   -0.67816201508895   -1.97426701203347
O          -3.07384356455842    0.74905483425325    2.62786830717349
H          -3.68541027810395    1.48746245539993    2.67356727420776
H          -2.87447452227207    0.61132891036774    1.67858986254134
H          -1.40489574729144    1.24026141685942    2.61035544573893
O           2.55275491218545    0.11504557751252    0.76266048644049
H           2.86442300781212   -0.65346911865858   -0.69639451069945
H           2.05135346988064    0.89368589403547    0.47076765414797
H           1.86476436134633   -0.43387238788553    1.16809111374601
O           0.63317293243522    0.12125620697638   -2.39504295890027
H           1.51539858634701   -0.30233516593646   -2.25247797016233
H          -0.34006284946092   -0.85450463755387   -1.83451660878239
H           0.56273287839265    0.79862955434982   -1.69095245472093
N          -1.02342458574340   -1.38586118890556   -1.15336594413748
H          -1.77717776085605   -0.71527586028364   -0.91721913286569
H          -0.51108480296477   -1.43517743658110   -0.23064084630080
H          -1.35811274840393   -2.28009805018463   -1.49555508529995
