    23
        -45.37137317  Gyration_radius:  2.42269707724 Dipole_moment: 4.869
 S          -1.06006487861840    0.01581589549932    0.62209786407313
O           0.01454361644324    0.40225083175783    1.52226687263552
O          -0.62952140812276   -0.99481129078574   -0.33322780096188
O          -2.19959681182140   -0.58997848210407    1.50403950805491
O          -1.61657850162375    1.18909506405529   -0.07036536604695
O           3.21531029567735   -1.18183316405396   -0.35512415352958
H           3.67024953940594   -1.95541574179290   -0.69122915745178
O          -4.02642367363347    0.12141416969205   -0.27558868421311
H          -3.21799719871830    0.64094003083490   -0.45607035275252
H          -3.00858621248672   -0.57438512647534    0.94916341095562
H          -4.68688502388761    0.74333178016015    0.03831983008971
O           1.35436802023749   -0.00237542262691   -1.82851110727515
H           0.57317442968097   -0.47937405573613   -1.47329857481034
H           1.17712911927557    1.25937910476101   -1.08502374277067
H           2.13256678737537   -0.43702804038446   -1.39957174543902
O           1.27193284598050   -2.00552040003020    1.25470149317169
H           0.55181413470774   -1.95075921469674    0.60056587630792
H           2.57497980336093   -1.51660999385554    0.32249912613250
H           1.08321033408306   -1.25718865900612    1.83615102308844
N           0.83226839366698    2.02090105773118   -0.35962782627325
H          -0.21068040159122    2.03933184261502   -0.45969548504551
H           1.27751941942022    2.92840899331757   -0.44255242275989
H           0.92726737119801    1.58441080113983    0.58008141482519
