    23
        -45.37137319  Gyration_radius:  2.42275580843 Dipole_moment: 4.867
 S           0.89491976356653   -0.80709681379978    0.24331817508573
O          -0.05667059390565   -0.81977337130102    1.34287739742962
O           2.26937372594101   -1.27449591613643    0.82283206426083
O           0.50793614119091   -1.76942841109544   -0.80079172687706
O           1.05953994466939    0.52709992996708   -0.31539602509935
O          -1.80868463698077    2.78733662851067    0.90331354725983
H          -1.72904160740233    3.74208450342718    0.88294815160266
O           0.42077259210716    1.79805781710993    1.95081530407309
H          -1.01521590607221    2.45930961964850    1.39734855470487
H           0.18221530398927    0.92507562722540    2.28935603083701
H           0.85807146796076    1.58455096713392    1.10662320496364
O           3.00685403937467   -2.21259054436869   -1.54046332635812
H           2.81174218923272   -1.54129676079925    0.04994825488338
H           3.17454573605612   -3.15722917666356   -1.57226222147136
H           2.03553991880179   -2.10151360427528   -1.55564536056520
O          -1.28979722103563    1.37280812374966   -1.27708760746040
H          -1.56714555688488    1.98437003478516   -0.55063634531078
H          -0.34256832542905    1.18566585000236   -1.09934870276435
H          -1.83416178027249    0.05935378039313   -0.88286217429659
N          -1.94145741388981   -0.95855769765097   -0.46187525258838
H          -1.15901303619455   -1.51190986902109   -0.88560664210907
H          -2.85885274706834   -1.37655826204635   -0.57281448628652
H          -1.61890200777933   -0.89526244482577    0.52540918611220
