    23
        -45.37152244  Gyration_radius:  2.43830757378 Dipole_moment: 4.155
 S           1.17658739810185   -0.25881146321520    0.10195008689998
O           2.60287756771945   -0.07479812565381    0.71338822467077
O           0.94283616723738    0.87340300906409   -0.77011198500244
O           1.15527908173284   -1.53707119986169   -0.61658848533785
O           0.21273301027897   -0.29619928675546    1.20760467502437
O          -2.50710881758728    2.41516566652590    0.00606444092583
H          -2.71292881822010    3.32158781079634   -0.22723975028653
O          -0.12744830274800    2.38492377394568    1.18734450937877
H           0.40830828325689    2.21430921095017    0.39560433387214
H          -1.67485921185130    2.45357332966865    0.54119479685866
H          -0.10644156980974    1.52829289197537    1.63975972163256
O           2.97833914131292   -2.69419102975217    0.88130425432291
H           2.24419636866392   -2.51854777815037    0.25676528190108
H           3.71995038957014   -2.99640788284361    0.35216957085951
H           2.89223252315521   -0.96130861485262    1.01768189399615
O          -1.53990755284387    0.73303153152299   -1.80051522224074
H          -0.58605610966091    0.88624959602028   -1.63888690012020
H          -1.66615252601015   -0.55254727567314   -1.06224450314096
H          -2.00380837332766    1.39220325714945   -1.22746105112516
N          -1.46434509399801   -1.41086206582382   -0.40207115825460
H          -2.25038679964562   -2.03646046522498   -0.26230088267109
H          -1.07612636152338   -0.99134609714915    0.48624454839665
H          -0.61777037378739   -1.87418880263379   -0.77965640053273
