    23
        -45.37152226  Gyration_radius:  2.43845740894 Dipole_moment: 4.156
 S          -0.61322780788908   -0.89637893934862    0.53334482755937
O          -0.74830197859206   -2.12505013557201    1.48952290314433
O          -1.96375912510663   -0.41997013086139    0.21743336178676
O           0.12739040905062    0.15083649502264    1.24590269829291
O           0.10441884795935   -1.35173965906273   -0.63922150032817
O           2.97418382463810    1.10146408264145   -1.43850501990670
H           3.72914872326102    0.82895747444303   -1.96189508019407
O           0.50461530883129    0.71122937124584   -2.32141332132074
H           0.34665314543047   -0.16588696493561   -1.91497515695601
H          -0.26138322865583    1.52863744879959   -1.34222333390077
H           1.45201434211453    0.91564826230808   -2.12456813916922
O          -3.04534644247253   -1.23437766685580    2.46976842260831
H          -2.86446506093922   -0.77820107960162    1.62181452235868
H          -3.77623886137705   -1.83460684293752    2.30583004315841
H          -1.49116120129362   -1.92389251762248    2.09780354099427
O           2.52329939513228   -0.76830904335892    0.39494015360710
H           1.87989261628839   -1.29235274944521   -0.10948214694943
H           2.90440020517322    0.44663508563911   -0.69920843019540
H           1.96156454408329   -0.32232873725499    1.04629588883731
N          -0.81427365202497    1.85234540706358   -0.44624854499993
H          -1.66223323118998    1.25871060260074   -0.39861773290184
H          -1.00306904111494    2.84768479937123   -0.39740775465536
H          -0.26412172132447    1.47094543771268    0.37110980912808
