    23
        -45.36936459  Gyration_radius:  2.46345194868 Dipole_moment: 3.953
 S           1.23718811932143   -0.22887631865380   -0.30330970418386
O           0.83417807584862    1.17881235832312   -0.47638787143142
O           1.94779875483573   -0.45928451362630    0.94144937976290
O           0.09886572070084   -1.10558646256215   -0.48025874648746
O           2.23862673452668   -0.48614348879691   -1.48817071771441
O          -2.58838004109994    0.29018180416369    1.78006303209652
H          -2.77393346043659   -0.32165584160187    2.49391690796702
O          -2.45687638722080   -0.63510446346359   -0.70598774902290
H          -1.98921530979579    0.58395243821043   -1.30543414161627
H          -1.56235209814369   -1.04419062195501   -0.64400528093357
H          -2.65941860542713   -0.35926953912915    0.21981124965712
O           3.49723740606365   -2.32489287546757   -0.04699088908263
H           4.41170244365451   -2.13325730128700    0.17318078592828
H           2.94956518066305   -1.78350872639861    0.55964961574732
H           2.75238858500170   -1.27154458416525   -1.21267602663120
O          -0.02601043993568    1.02402675821452    2.06500286393724
H           0.62828569445856    0.31794489057493    2.15760892442295
H           0.23584371602419    1.43644299478578    1.22777720812410
H          -1.66366932254268    0.59819037396668    1.92252158276562
N          -1.43334070139195    1.49159315584157   -1.66120046368246
H          -1.87502669352435    2.34343112007069   -1.33041471124360
H          -1.34972962444742    1.49935468697425   -2.67198992800834
H          -0.45372775717239    1.38938417587941   -1.21415531042959
