    23
        -45.37137311  Gyration_radius:  2.42271294856 Dipole_moment: 4.866
 S          -1.15257352023208    0.16215368812242   -0.39759090265509
O          -1.55359382117588    1.06816641071515    0.69066589700003
O          -2.30616620416708    0.16040625890354   -1.45259695919429
O           0.06313012178867    0.63418578577590   -1.04473164064028
O          -1.01440239316287   -1.20293351465910    0.08408088961293
O           2.98018653553097   -1.71611276422195   -0.16077370246317
H           3.77327466796112   -1.74532432787397   -0.69787157039816
O           0.88257789106187   -1.80282714650654   -1.78466316264872
H           0.71274530352633   -0.84348958376804   -1.80218241505387
H           2.22428545714580   -1.86124958755320   -0.78446297557585
H           0.15182308619749   -2.13482350671791   -1.24675901164251
O           2.06948455744438    0.60931616936010    0.72549836934076
H           1.08041464438516    0.15011263927634    1.71910847426697
H           2.54021889860157   -0.21456707523852    0.44544272621939
H           1.44527409781179    0.80255700618067   -0.00720362773315
O          -2.85595276026623    2.69805100424226   -0.93300620838058
H          -2.32756207226615    2.35008904984543   -0.18751611508531
H          -2.58479897280032    1.09603044013353   -1.55001570203659
H          -3.73646839564446    2.86576777407943   -0.58935550000338
N           0.14643009692557   -0.19886951948575    2.19957045923121
H           0.21941200587748   -0.39459646057940    3.19210132041018
H          -0.18520311941664   -1.00417104567480    1.63024681293323
H          -0.57253608511014    0.52212829564800    1.95201453448706
