    23
        -45.35981436  Gyration_radius:  2.32613593168 Dipole_moment: 5.669
 S          -1.55358112168980    1.47780164906846   -0.11222678619296
O          -1.42440971754506    1.47971639919035    1.43857341467684
O          -0.09666066573187    1.79752370394339   -0.55943441951468
O          -1.86514609556462    0.12783237421020   -0.52161090867803
O          -2.40897497087171    2.50529895103509   -0.56965908477793
O           0.75764090094109   -1.72293602243793    1.24859917388168
H           1.31338246711174   -2.48316098210405    1.42322878128219
O          -1.77107504473925   -0.99536456564993    1.91358423077815
H          -1.59918362075982    0.52988250398602    1.75182772827140
H          -2.16225075942724   -1.08432216523525    1.03258043697382
H          -0.87525846762922   -1.38082223228231    1.84023829247971
O           1.36642717575276    0.87319934900508    1.33732871351992
H           1.24262931891769   -0.10298933372257    1.35275360493286
H           0.53624180275928    1.44395531752204    0.14204963810193
H           0.90258173603943    1.22280365049997    2.10327167399938
O           0.07036008690259   -1.62707434914561   -1.21589302543957
H           0.71008122608643   -1.06552618003206   -1.71416975944748
H           0.52310413156892   -1.75757789471969    0.26193387709198
H          -0.72821424562052   -1.07654085244250   -1.12637076613652
N           1.66008752675619    0.22373607893955   -2.41894308295237
H           1.11456075539099    1.01541596919789   -2.09252650079906
H           1.67994246488901    0.25297666843321   -3.43046322900569
H           2.60771509646320    0.34617196274021   -2.08467199304320
