    23
        -45.37152250  Gyration_radius:  2.43843839324 Dipole_moment: 4.153
 S          -0.16550885359119    1.05539073408418   -0.56460649293146
O           0.43813175601165    0.68432550676474   -1.84838660988756
O          -1.41569785569274    0.36748000664249   -0.31810072015364
O           0.79750397405385    0.82902818246650    0.51916646740664
O          -0.48902809050807    2.58353814609252   -0.60895991147163
O          -0.95631511040175   -2.17299010970117    2.54666347398140
H          -1.70462812529935   -2.49038197985388    3.05411789494589
O          -1.14739418951652    0.47074137484501    2.36134490724104
H          -1.63088138677976    0.50665760387443    1.51997043839299
H          -0.99479028411763   -1.18471948143959    2.59324939046682
H          -0.25651556754854    0.74826820802940    2.10010137659784
O           1.47071756897600    3.05177336797270   -2.33212071688221
H           1.26578715505495    2.09370795226213   -2.33814934717046
H           1.15308398267928    3.40377205125502   -3.16667741607406
H           0.24868144615845    3.01089361101496   -1.09422466830279
O          -0.97355233415072   -2.27863285279678   -0.10263196319806
H           0.45136125224453   -1.96327024452101   -0.39186427174305
H          -1.00822137945111   -2.38104576903715    0.88034733727186
H          -1.34455354512370   -1.38878669561965   -0.27593436877323
N           1.39021996018140   -1.42170663685715   -0.58842294803746
H           2.22488692564382   -1.99796299464519   -0.58365932508759
H           1.40286374033095   -0.62807691628226    0.10911039694748
H           1.24384895084736   -0.89800307454974   -1.47033293353401
