    23
        -45.37137313  Gyration_radius:  2.4226087401 Dipole_moment: 4.868
 S          -0.43216949292570    0.37916004026928   -1.08654062780351
O          -0.01915662208638    1.78236899802934   -0.92421944894820
O           0.69036373795845   -0.52115452288923   -0.86599802467920
O          -1.55750547631467    0.06319882922470   -0.22145372728503
O          -0.92498049100675    0.20471170764311   -2.55967815771897
O           0.17581197123519   -2.42075374188519    2.44189409048640
H           0.64075495360368   -3.23974612496599    2.61932598394076
O          -0.82183772678583   -2.55723017838428   -0.01407457307350
H          -1.55442844269321   -1.92741303109650   -0.03069494906092
H          -0.10781681208488   -2.06158213278809   -0.45442773406266
H          -0.27439966024108   -2.54798475434826    1.56870489131171
O           1.52787349680925   -0.27805515557902    1.66432935589210
H           1.12344366724086   -1.08889991009156    2.06146651904207
H           1.44461162843396   -0.40583362564604    0.69462371060994
H           0.49634322864959    0.76573590259962    1.82154219060407
O           0.84219312096281    1.98090332053520   -3.41585038531576
H           0.74440282755931    2.10106234921022   -2.45040618369216
H          -0.27924919463276    0.68643017171972   -3.11958280934322
H           0.47025243745800    2.76415471072760   -3.82776238208175
N          -0.35176911683822    1.45157350496383    1.63529345684486
H          -1.13433059706015    0.85409687122969    1.29873962131981
H          -0.10274713425831    1.95880568046084    0.75272664487948
H          -0.59566027298993    2.05645108105805    2.41204253814356
