    23
        -45.37137323  Gyration_radius:  2.42287036731 Dipole_moment: 4.867
 S          -1.03562939484711   -0.52016636081508   -0.41032037604837
O           0.18682465686459   -1.20973940292991   -0.02359606139414
O          -2.21094564027456   -1.55056643586441   -0.39716103581458
O          -1.38324640646373    0.53338799656654    0.52980158444828
O          -0.92945630729976    0.00811158731234   -1.77985849673997
O           2.04482276412824    0.86894677979644    2.63194787040024
H           2.69908696696678    0.46708616597014    3.20537744275254
O          -0.09133852965900   -0.70645104598725    2.58963881210711
H          -0.82715129941093   -0.13748088189688    2.32781506730885
H           0.12397179573380   -1.16792954578353    1.75891728907936
H           1.22669404964373    0.31843610048072    2.72604149439020
O           2.21045715018310    0.54024346308137    0.00736680386524
H           2.29068801415246    0.69954992794651    0.98040093438243
H           1.63182515270589   -0.24905633247383   -0.07077516255231
H           1.23969075322204    1.55046558091427   -0.45510075738823
O          -1.67474148564537   -2.27405001049817   -2.88681682652529
H          -1.24142935305501   -1.41188970626617   -2.72884772128449
H          -2.11493532333259   -2.08052584077679   -1.21730099577469
H          -2.37775144953127   -2.11482510494829   -3.52078205202514
N           0.30399077723922    2.05860256037240   -0.75693462692554
H          -0.10157104059968    1.45586555698529   -1.51207894175679
H           0.40594939711897    3.03556750330935   -1.00959603001003
H          -0.37580524785824    1.88641744551876    0.01186177550739
