    23
        -45.37152246  Gyration_radius:  2.43843836829 Dipole_moment: 4.154
 S           0.13557361090872   -0.22977653576568    1.17955274899157
O          -0.37809904599010   -0.35770635896967    2.64983638250712
O          -0.83176943314264   -0.90020657853983    0.30338977410595
O           0.22723128074113    1.18557584404707    0.88728935091369
O           1.43309862360570   -0.90775899057878    1.09407034491221
O          -1.49492599703496    1.92819195601452   -2.48404837940427
H          -1.80811219624516    2.80788061964969   -2.69919289621777
O           0.99746387032567    1.54006121018547   -1.66749710466890
H           0.12774438504913    1.76273314239984   -2.08228406063621
H           0.84310496151586    1.61488476265416   -0.70315999924496
H           1.07465249887896    0.05618218646904   -1.74584537650899
O          -2.30431764244358    1.34305626617409   -0.02194297668748
H          -2.21418568599202    0.37967083704844    0.02821225335287
H          -1.51351428502269    1.65021073357794    0.45062749897998
H          -1.90682760380422    1.69767022292140   -1.61357275924474
O           0.94291400799026   -2.62667820737787    3.02019235310539
H           1.31717880610541   -2.16562246665327    2.24093521632504
H           1.60050324647960   -2.56277154085363    3.71647973567437
H          -0.12604933014391   -1.25492456890810    2.95607033893201
N           1.00619846866398   -1.01536464864211   -1.50037395909713
H           1.63336928728860   -1.16751756955335   -0.68968777494334
H           1.17638300000882   -1.64354139637002   -2.27830741295993
H           0.06238516226429   -1.13424894894988   -1.04074330817576
