    23
        -45.37152243  Gyration_radius:  2.43856323582 Dipole_moment: 4.151
 S          -0.39305432367216    0.84610876253208    0.76870025905761
O          -0.20417816209699    1.90069543833691    1.90632623550006
O           0.68203189277091    1.04124015054494   -0.21078955248968
O          -0.31733205040767   -0.46028943578312    1.38887059798550
O          -1.69164822728999    1.09402509884397    0.13432228400139
O           2.11537502110858   -2.70123633333015   -0.59602712456578
H           2.52848225289863   -3.46462713482384   -0.19021653907924
O          -1.73899043555653    3.66820284834537    0.66079516586658
H          -2.51928918836559    3.90322969894086    1.16796995671479
H          -0.57993007993447    2.74248892114871    1.57104622736961
H          -1.90912011373272    2.77984948913495    0.28434040783554
O           2.35257985397419   -0.64980558282606    1.07574430972658
H           1.50754985447478   -0.76278156326807    1.54052651259596
H           2.32032514113801   -1.93401213875702   -0.00457861934952
H           2.18009032805690    0.12325858556028    0.51772493873236
O          -0.51360340873559   -2.37497802389162   -0.49221547678427
H           0.43728237358007   -2.63311306692878   -0.57774557255669
H          -0.55655094286555   -1.84176214713621    0.32840205708871
H          -0.68367007265344   -1.26276482667268   -1.46508399993984
N          -0.74763958656756   -0.25972404331487   -1.91619723360579
H           0.06897903721971    0.27684120289833   -1.51420064294042
H          -1.53882360300593    0.21859355354878   -1.44858560494117
H          -0.79886557032801   -0.24943946310407   -2.92912860622037
