    23
        -45.35981407  Gyration_radius:  2.32634824411 Dipole_moment: 5.650
 S           1.84878676074280   -0.08797757792087   -1.08288181512477
O           2.27348298399280    1.05282551626724   -0.11347562221662
O           1.47598822232432   -1.22780039143948   -0.27738605272080
O           0.55646464727735    0.49647445895087   -1.72579683446560
O           2.80936844605323   -0.30034827771013   -2.09729588384265
O          -0.86736354260150    0.35764135841893    2.05607820521660
H          -1.56960790113746    0.36295529054222    2.70728452038267
O          -0.38933294930783    2.07121206175630    0.06757533434277
H           0.40597503170452    2.54800173026468    0.32102537642200
H           0.12360138262306    1.11981334240482   -1.06103213051538
H          -0.64333715574290    1.51432526771606    0.83818279690783
O           1.81156404757547   -0.07194074619503    2.12113417279218
H           2.17711859493250    0.69089720452515    0.83023986664601
H           0.87053452977953    0.12642251497323    2.29887300301320
H           1.81292799704515   -0.92543075700119    1.66431614735014
O          -1.08471504935552   -1.64793488237199    0.47918142719284
H          -1.59831947385322   -1.38721379180141   -0.32143606818524
H          -0.16024903136957   -1.70027019625248    0.17666551465526
H          -1.01719671957200   -0.46195437926050    1.47691154576442
N          -2.17661528577296   -0.74445414420402   -1.84290092189670
H          -2.84536998554845    0.01490146885667   -1.81349773767630
H          -2.51269088742519   -1.43043189859107   -2.50692304228892
H          -1.30101468236705   -0.36971316192328   -2.19484179175358
