    23
        -45.37152255  Gyration_radius:  2.43864638151 Dipole_moment: 4.152
 S           0.62885432309612    0.08493772840975   -1.02972366138518
O          -0.06920738031331   -0.97268521153856   -1.76755988554101
O           1.60617212290238    0.79695540112640   -2.01947837995362
O          -0.33973356400429    1.08082203299193   -0.55703009825348
O           1.43344228461874   -0.43240277574804    0.05747798736211
O          -0.14631098516479    0.57122710212743    3.43186834296451
H           0.37289871673693    0.59870616416605    4.23678628308888
O           0.07859040711188    0.21470117364500   -4.10705082985144
H           0.52600579132367   -0.34113904621152   -4.74905911447514
H          -0.17034171357749   -0.36817302248950   -3.35994200371871
H           1.14331117287448    0.84404319013705   -2.88307913289671
O          -0.15647326278613   -1.58956257161153    1.89544831552888
H           0.57719240571985   -1.34001893376505    1.29633456008426
H          -0.17924617762424   -0.87642555050387    2.58030123376129
H          -1.28429843120965   -1.26057216120134    0.98269324825649
O           1.21924432608859    1.81820926855824    1.52400603005806
H           0.33433291163738    1.13823140154656    2.77772795404032
H           1.67276080151172    1.04076554288754    1.15945123700503
H           0.55179001871841    2.00455313967581    0.84677461129497
N          -1.87717602954547   -0.86608454216020    0.14226405061895
H          -2.88195029427855   -0.95095969513790    0.25143232112090
H          -1.50551063565294   -1.31879781141185   -0.71229321805197
H          -1.53434681818876    0.12366920651838    0.00265015894382
