    23
        -45.37152240  Gyration_radius:  2.43835833043 Dipole_moment: 4.155
 S           0.51775696612419    0.94569375305482    0.54843710187858
O           1.15458505622105    0.12797303567641   -0.49044391490958
O           0.71790804057833    0.32246162609887    1.86056754038471
O           1.22555382539614    2.33883622449025    0.56460918305326
O          -0.87955113653800    1.18655580039862    0.25405136880217
O          -2.03792114176172   -1.17868700556122   -2.56524522275867
H          -2.80489626712144   -0.97513490051469   -3.10245007390538
O           2.99942123974861    1.52698637153759    2.36037171224670
H           2.05566874068267    2.22348538815783    1.07433028219446
H           2.95443810107673    2.02780708553744    3.17795370471591
H           2.23634707636169    0.91256431766315    2.36813696671803
O          -0.53243722742610    1.00534906968943   -2.41195137409450
H          -1.44668990325684   -0.38642165847421   -2.62251996700151
H          -0.90785755820786    1.36440702954188   -1.59148005464415
H           0.32807046476020    0.67171339753653   -2.11695760216753
O          -2.19199935921751   -1.15729884811308    0.08157010497830
H          -0.89395813379188   -1.79590009002742    0.42975910325285
H          -1.92653645880123   -0.22627087232829    0.23039308302489
H          -2.25568140392457   -1.24946642865333   -0.90102299710899
N           0.17059587351725   -1.95683248670383    0.66213775989978
H           0.45789218232505   -2.92893733151428    0.69727640332756
H           0.36071891797954   -1.42896534558648    1.53297246474764
H           0.69857209527360   -1.36991814190186   -0.04049557264189
