    23
        -45.37152219  Gyration_radius:  2.43823365499 Dipole_moment: 4.158
 S          -0.72252756648729    0.67605894936887    0.69671340552151
O          -0.55096840459321    0.84946260393345   -0.75036478458872
O          -2.09910000506139    1.29919757017780    1.09527713587090
O          -0.77214218451830   -0.72415693082454    1.06271622513281
O           0.32817770337307    1.40839704269145    1.41079799735069
O           0.41451615620784   -2.88449188925843   -1.90638518995088
H           0.16976030051264   -3.80820078650603   -1.97762450697579
O          -1.77212949121769   -1.49412972040306   -1.31834939539200
H          -1.67973765564552   -1.50949848085766   -0.35176937143408
H          -1.53013881262911   -0.58124641922885   -1.53482678167305
H          -0.43384728707086   -2.38489081904318   -1.80163494771141
O          -1.00312049385386    3.66991961158442    1.55324953340093
H          -1.95742128006731    2.26756933525449    1.16142708016071
H          -1.10374127465361    3.95609567916382    2.46392960342464
H          -0.29826740555536    2.98948002959537    1.55162451841287
O           1.50996488736492   -1.94135133468335    0.31648460958986
H           0.68858101998330   -1.65824595630807    0.76885263976680
H           1.20285469074086   -2.39969615957116   -0.50424945338678
H           1.95522822209947   -0.60109973214920   -0.15251138063032
N           1.97582896929407    0.46845507947977   -0.41442956393310
H           1.05844231851530    0.65010656880250   -0.90665802501384
H           2.79597623548811    0.76562731215503   -0.93188768656741
H           1.82381136779056    0.98663844663913    0.46961832864232
