    23
        -45.35981407  Gyration_radius:  2.32634744578 Dipole_moment: 5.650
 S          -1.85058418821128    0.47909160876104   -0.97163075082793
O          -0.62556833248213    0.64503111140296   -1.71915670752437
O          -1.91324387335826    1.61930096654415    0.08550855068495
O          -3.05061333822345    0.38191932104199   -1.71145774828851
O          -1.70586123283352   -0.78656163264098   -0.07596992081941
O           1.78589143148252    0.92644468751401    1.02960397121113
H           2.66145813820730    0.91237817381711    1.41746007243444
O           0.32391155385958    2.74921657421960   -0.35079684613384
H          -1.07477636715346    2.17950216186485   -0.03290761142627
H           0.95382362887781    2.25897178766342    0.21431165072153
H           0.35201991370217    2.30687171362660   -1.21141750351643
O          -0.52782958062657    0.06396481734470    2.04047465296338
H          -1.04251363334591    0.85504904936982    2.22313721758609
H          -1.23335806658509   -0.52223789006418    0.77532621527683
H           0.36953838990342    0.36571676946171    1.77186789276547
O           1.65084199392446   -0.62445475848621   -1.00329028844838
H           1.33006708595218   -1.51377921269767   -0.72229379705711
H           0.88968348927407   -0.21496707739324   -1.45256720346038
H           1.81279057169287    0.29756919261885    0.23373290147563
N           0.41364972424115   -2.91134951325504   -0.20325670203195
H          -0.51864632157217   -2.51247719622728   -0.25521553105073
H           0.55216940546848   -3.24497946390115    0.74237730028841
H           0.44714962780776   -3.71022120058494   -0.82383982482358
