    23
        -45.37152258  Gyration_radius:  2.43829851743 Dipole_moment: 4.151
 S          -0.85742744195389    0.38563358782995    0.75987434738232
O          -0.73896559324810   -0.98915828291618    0.26060526673570
O          -1.66571072590579    0.34352195205578    2.09662201254265
O           0.43845040787258    0.95325176623181    1.06898691992539
O          -1.61351411333711    1.19707970029093   -0.19946760534993
O           3.21337790872737   -1.26304122330719   -0.43635076029081
H           4.10883188504498   -1.24222342656548   -0.09592431761909
O          -3.97240099268353    0.66758836174201    0.83017685671624
H          -2.61311335902859    0.28841255019424    1.84823387616684
H          -4.42574344292094    1.47342235052665    1.08791631435507
H          -3.24302517623900    0.93717625924428    0.23412933301061
O           1.54886826745097   -1.43807559665904    1.62719165407718
H           1.39150661365506   -0.48755487765839    1.74810900780675
H           0.71817261738161   -1.73603119579169    1.22715443202865
H           2.62957680735731   -1.44235690531382    0.34306181409995
O           1.97567440105261    0.97324368724007   -1.14041307353426
H           1.53932688326778    1.16795208631213   -0.28534757844846
H           2.54991082425236    0.18856210458001   -0.95973893945639
H           0.79372260267959    0.40975364756332   -1.84689096831325
N          -0.20092266022508   -0.01128147888293   -2.06293558852477
H          -0.88839869831451    0.71499901532544   -1.79213207101705
H          -0.36783772735197   -0.72901066585191   -1.30568772915635
H          -0.32035927754515   -0.36186339618824   -3.00717318314134
