    23
        -45.36936446  Gyration_radius:  2.46347827445 Dipole_moment: 3.954
 S           0.77788772507173    0.74464645543442    0.71802039519652
O          -0.65643531386359    0.94289965305799    0.99611259199549
O           1.39665639946050    2.18251411385014    0.86759648715981
O           1.42199292262009   -0.12282094564044    1.68768828517087
O           0.97206507108612    0.31296784674815   -0.65005467663741
O          -1.37241282118669   -2.61725722088107   -1.10391315585372
H          -0.87340158061315   -3.42546518170200   -1.23111527838113
O          -0.69984016221203   -0.45871244151289   -2.49768156832619
H          -1.57959222083878    0.45142342038304   -1.81782765554142
H           0.09657175870022   -0.20943974901712   -1.97333661090313
H          -0.96537124846976   -1.33511068073294   -2.12942892830643
O           3.72191319760355    1.12547033855026    1.58688685761629
H           4.01747984065045    1.32673244413284    2.47771473650010
H           3.03170431490354    0.43501687844980    1.67615521392640
H           2.35161262766910    2.02789150829591    1.01195224637114
O          -0.74162351095375   -1.72095760530622    1.34224656073790
H          -1.17928863403812   -2.32331707139694   -0.18382852681031
H           0.19859534601944   -1.64003651472925    1.55387370201875
H          -1.03983243761013   -0.79953811120116    1.38221914156681
N          -2.12615711995666    1.13207884707866   -1.11269709597511
H          -1.52489043810298    1.11345190674525   -0.21370825231512
H          -3.05635202052562    0.77930375147519   -0.91163850623495
H          -2.17128169554760    2.07825837625104   -1.47523595299757
