    23
        -45.36936474  Gyration_radius:  2.46353337865 Dipole_moment: 3.950
 S          -0.66012984717343   -1.07818450795708   -0.27933070563883
O          -1.43604182172997   -0.09013167054618    0.49266632290565
O          -0.12144451424936   -2.14004934205048    0.55118046451682
O          -1.71757017095617   -1.71378975601262   -1.25445680963773
O           0.34679638865792   -0.41526672667910   -1.08074165200110
O           2.18987239596965    1.85351555210395    1.31249566970513
H           3.09396759490727    1.55705661885507    1.42637874550601
O           1.19508051383327    2.05056300192645   -1.14218604809880
H           1.03904697172135    1.08954235655313   -1.29537352698926
H          -0.15660625993389    2.32885591506104   -0.74249326592923
H           1.68562237769466    2.08059545266431   -0.28623708119905
O          -0.33764838036587   -3.98007963524433   -1.29978392820476
H          -0.78170282482679   -4.74990656754028   -0.93697090757707
H          -1.32167436807732   -2.56496872568431   -1.52915669373473
H          -0.03255035402464   -3.45208019571982   -0.53222774435969
O           0.62769088256458   -0.12981570678454    2.21324039678019
H          -0.26487199228872    0.05167904828924    1.88129028285814
H           0.79671524988733   -1.01742440497341    1.86889777139961
H           1.62326531919653    1.14471430433442    1.69566275021504
N          -1.21179009874184    2.33165009119152   -0.36046227439215
H          -1.31703876093351    2.97653095230879    0.41618572179229
H          -1.36831153862241    1.31750772250251   -0.01841418731887
H          -1.87067677248094    2.54948622342106   -1.10016330067495
