    23
        -45.37152229  Gyration_radius:  2.43847755434 Dipole_moment: 4.157
 S          -0.66249283457256    0.42586743117885    0.91853164483312
O          -1.17145645941514    1.62690052018768    0.24842508486569
O          -1.10029941713398    0.48951289564284    2.41730484737382
O          -1.21610088854648   -0.79447452238370    0.36943637524905
O           0.80423325886818    0.41937397450061    0.87658184503794
O           1.53307145787025   -2.73027818998608   -1.52414021401523
H           1.45773257957700   -3.67190699298145   -1.68492133376786
O          -0.43253468610217   -1.08025437802906   -2.19000386311694
H           0.28751270051583   -1.74898234089268   -2.07844941723996
H          -0.91699354608258   -1.08752008437954   -1.33872928257161
H           0.25092021112871    0.23083051237280   -2.02256598995600
O          -1.13652309097612    3.14068321690838    2.39644344323440
H          -1.15938791080930    2.81604922541938    1.47239005988021
H          -2.00671534587510    3.50171651692243    2.58013529493377
H          -1.02428056076947    1.42877420753968    2.68984612157546
O           0.93598918547305   -2.27721512371374    1.02508169315463
H          -0.01047229149693   -2.09527096828091    0.90611472850584
H           1.41770652224137   -2.61033564090457   -0.54811979714294
H           1.29685414563783   -1.39407214879213    1.19370626820149
N           0.65467553703531    1.15893097705631   -1.58815857559769
H          -0.16225611574285    1.70380752536204   -1.25762155177235
H           1.27944564606524    1.67810648215302   -2.19549651730096
H           1.08137191310548    0.86975689511430   -0.66579089435072
