    23
        -45.35981436  Gyration_radius:  2.32612824577 Dipole_moment: 5.670
 S          -2.05489673807380    0.28108719224911    0.55562275569955
O          -1.49882777060005    0.82160463164979   -0.79472902128755
O          -1.44924073452920   -1.00555444960157    0.81021175694176
O          -1.45903578559460    1.29077641105810    1.57892736008582
O          -3.46653401165519    0.33579739820475    0.52433207714832
O           2.09626891608508   -0.07448452027687    0.83736887329863
H           3.03722180051500   -0.24766478506711    0.79369868141002
O           0.77375942309874   -1.81163342832400   -0.49995388584604
H           1.64347054140987   -0.80220345760680    0.29410100567872
H          -0.08801348122112   -1.71677514340833   -0.05592087218747
H           0.62445660809217   -1.47749336608910   -1.41588104280671
O           0.20142612349670   -0.22061017966919    2.77490214935780
H          -0.80488750442481    0.77416611186157    2.15864045544361
H          -0.27813614634802   -0.98439140358895    2.42307860188377
H           1.01548124024841   -0.15462242257120    2.23693473840025
O           0.70558395222553    1.97363603241878   -0.15744985543166
H          -0.61699128774224    1.27771511431740   -0.61586584894342
H           0.42135166428060    2.48844835382604    0.60296252899082
H           1.31159513963587    1.27695770688328    0.18298938438346
N           0.09765205640975   -0.65400770590503   -2.86698900901897
H          -0.24573315445645   -1.24901612302794   -3.61027650906827
H           0.72648599699254    0.02535350332610   -3.27657770705787
H          -0.69245683784095   -0.14708548066396   -2.48012661707622
