    23
        -45.36936455  Gyration_radius:  2.46319999646 Dipole_moment: 3.942
 S           0.76472814744765   -0.69400257380951   -0.78260357036256
O           0.64029301667227   -0.78562170107408    0.65675150550502
O           0.56695335068474    0.69755020808594   -1.22864956281034
O           2.25863713658872   -1.00579773944259   -1.16278193865209
O          -0.08349212725541   -1.63572293566967   -1.49040137180005
O          -2.62361409813785    0.92834508894757    1.48472770039167
H          -3.25948950450488    0.29571482609270    1.82197189651032
O           1.66964541404019   -3.58066043562180   -1.41878291336844
H           0.83157984058182   -3.07241535228198   -1.43348058445757
H           1.77463747698408   -3.95177586425361   -2.29779449278689
H           2.31201837799790   -1.98233319052246   -1.17771372550343
O          -0.15323858228018    0.92341527887397    2.46068451869895
H           0.17680317729682    0.13347920300456    1.97243879948103
H           0.38530569888603    1.87442393232157    1.52738730348738
H          -1.11907392845213    0.94413166332036    2.25871208429013
O          -2.05886100503970    0.16600129846816   -1.02238563096866
H          -1.25267587465851    0.63976858709998   -1.27819846569537
H          -1.80479357060638   -0.75704723223371   -1.15847197962195
H          -2.46239875281511    0.67512060279036    0.54660013742112
N           0.77776648913109    2.45103691338409    0.64855519910695
H           0.74150406384320    1.74110940666174   -0.16674512048568
H           1.73502800677553    2.74925821406846    0.80165218663529
H           0.18273722681484    3.24602177185305    0.43852801502663
