    23
        -45.37152258  Gyration_radius:  2.43862210404 Dipole_moment: 4.155
 S          -0.02835937575444    0.97271727513152    0.71825922656971
O           0.42514209085257   -0.20938490769453    1.42124474297927
O          -1.04697167960029    0.64510912032859   -0.28598658254112
O          -0.68592147779705    1.90975194927322    1.78208938305433
O           1.07103067743122    1.70895006590678    0.08627776039464
O          -0.76376838355427   -3.36700384801561   -0.45052293624360
H          -0.83792242138915   -4.21259454794833   -0.00589251731943
O          -1.90401306205165   -1.52183124106930    1.08384495765198
H          -1.29382393400409   -2.72767148023498    0.08871337441459
H          -1.10819795443582   -1.24358471237699    1.56578903154950
H          -2.05036248058364   -0.77836824220732    0.47987967972258
O           0.01752850893001    4.08911474890850    0.44583356155226
H          -0.68281968534816    2.81251610207940    1.39820234526641
H           0.60745382749886    4.65609797880284    0.94765814018898
H           0.55795801671358    3.33557438934795    0.12967254221969
O           1.48036938368206   -1.96052223458802   -0.32951446283980
H           0.72980358827757   -2.59921539417678   -0.41127282426331
H           1.20597851811126   -0.93371964489420   -1.37053860808237
H           1.26346589019472   -1.41606972765856    0.45533210439446
N           0.86106466342442   -0.02282022732768   -1.88494768801512
H           0.94094774742182   -0.04685766470244   -2.89577965909625
H           1.36124324875849    0.76807141189026   -1.44065427811953
H          -0.11982573676319    0.14174082122164   -1.52768727343272
