    23
        -45.37152256  Gyration_radius:  2.43833887625 Dipole_moment: 4.151
 S           0.25582867577692    1.01216327950885    0.61004063045910
O           1.69266679090795    1.05286871394127    0.31970959042202
O          -0.12365962530059    2.33675093418200    1.34725860817732
O          -0.50178282236116    0.96148527310267   -0.64566607247060
O          -0.10272615444806   -0.07853445699897    1.49258265584409
O          -2.12897701911250   -2.71342626818021   -0.46600020492885
H          -2.70838678015143   -3.33228648086382   -0.01928026024159
O          -2.60273718144335   -0.28689341094711    0.50722357797933
H          -2.21618650461457    0.30525965164972   -0.15531681724664
H          -2.40860857431798   -1.81236624879143   -0.16540668881368
H          -1.92482490195497   -0.29069130985999    1.20238692283011
O           1.84407458528812    3.67225692575172    0.17495099616894
H           2.48286174331840    4.01672435122220    0.80313703936177
H           2.02168657290627    2.71198721153679    0.09589034947750
H           0.40496323555426    3.04984290841283    0.92971286852871
O           0.39810912315190   -2.43094923442511    0.28492905636078
H          -0.51668663835965   -2.68166923420526    0.00526399592105
H           0.92122617451061   -1.62357513760449   -0.84977454854611
H           0.27442040668834   -1.69852402887842    0.92351630783108
N           1.19501056367220   -0.77972018803617   -1.50278630012529
H           1.87750278305401   -0.21050702366234   -0.97019737261689
H           0.35584727122462   -0.13789312100040   -1.49183393648731
H           1.51037828602562   -1.04230309586043   -2.43034037789141
