    23
        -45.36936442  Gyration_radius:  2.46340314623 Dipole_moment: 3.951
 S           0.68612794390630    1.06762236004301   -0.25456302432416
O           1.98133311854104    1.62374180919255   -0.95175909619557
O           0.00968648393402    0.19826278643187   -1.19386742042411
O           1.20164293281352    0.28982463153762    0.88701018124641
O          -0.12146222479903    2.20106291260387    0.15863278764546
O          -2.44615587537809   -1.78472679685645    0.88554576890392
H          -3.34465622495849   -1.54639472347393    0.65245363838568
O           0.62256151635556    3.72380070848551   -1.83784208941822
H           0.90376670669907    4.57835539500397   -1.50306323296292
H           1.66906519826001    2.38061099798817   -1.48696566443008
H           0.10324606603838    3.30493266255589   -1.11959497670585
O          -0.71175740856064   -2.30483783995016   -1.05749059212833
H           0.44922953872726   -2.39891720214257   -0.21632659545347
H          -1.44907692823246   -2.23237347143035   -0.40529438714107
H          -0.54008619692767   -1.37328160143302   -1.32973749589457
O          -1.30351803174271    0.44059966206409    1.84894764730759
H          -0.34776134165171    0.27940950153516    1.85324100322767
H          -1.37262088641023    1.24067342484344    1.31000521679177
H          -2.04976680240638   -0.97876643670770    1.28991801981545
N           1.32798032011085   -2.24971667616480    0.46545379535864
H           2.19346660703144   -2.53004717549808    0.01696475025485
H           1.19957379407862   -2.74641212201066    1.34122609952272
H           1.33918169990436   -1.18342280143305    0.64710567310722
