    23
        -45.36936456  Gyration_radius:  2.46358848699 Dipole_moment: 3.953
 S           0.28284569001036    0.59654324328631   -1.11407213133343
O           1.24637063198770    1.62848888074753   -1.80652564062600
O           1.09395516109109   -0.35143969393488   -0.37989253120883
O          -0.51341666185330    1.41980247662389   -0.18541783423644
O          -0.52630979151898   -0.02361651602072   -2.14765941375524
O          -1.29756171958369   -2.09354222125609    1.97083005041749
H          -1.39112365733114   -3.01578469987247    1.72770556501465
O           1.13704227583506   -1.04407091970357    2.13460285736212
H           0.71073063982906    0.31521256729654    2.32352984149896
H           0.28940800114341   -1.54708562911309    2.18495545217682
H           1.30007735404146   -0.94521788894022    1.16764904067371
O          -2.20049185786115   -0.67097016626108   -0.11399693704124
H          -1.88777071902635    0.23723218112287    0.01632814636678
H          -1.84059627549109   -0.88735430901853   -0.98517407177199
H          -1.68189003162687   -1.57778317074091    1.22484568888412
O           1.34031064238323    0.10823679140204   -3.97950115425963
H           0.97849091537059    0.49518197006489   -4.77996885536364
H           1.53701573739581    1.18406767537118   -2.62795153398921
H           0.57235452264732   -0.17602371100419   -3.44052878199675
N           0.31080015694259    1.36141647305928    2.25591964140436
H          -0.02002592388857    1.44833993585895    1.22971362470265
H           1.03609468222041    2.04573112123091    2.44144995905474
H          -0.47630978253854    1.49263559841077    2.88315900738299
