    23
        -45.37137286  Gyration_radius:  2.42180799533 Dipole_moment: 4.860
 S          -0.84101683712089    0.28966972505099    0.84969163572840
O           0.20320872040768   -0.50118764977767    1.48078283044698
O          -1.90031490207368   -0.57391996170082    0.30333963568508
O          -1.48715058220964    1.17018033700154    1.96804750626433
O          -0.30725394677460    1.17022932762831   -0.17943128847545
O           3.26672944088612    0.06249132470504   -1.07981085293024
H           3.87646357526349    0.66266188180772   -1.51151638314277
O          -3.77853133034691    1.25608086312557    0.64398020982940
H          -2.34881850370827    1.47239732966799    1.60941908720721
H          -3.25706334955638    0.51018109433795    0.28676537068575
H          -4.53090675628577    0.87058267347294    1.09870649538851
O           2.11996770681739    1.36069881904469    0.93188541244666
H           1.81235281581273    0.67438541859114    1.53875320445727
H           2.94260258398924    0.53803375707835   -0.27356586891180
H           1.30383274790757    1.60439679089926    0.45893581148407
O           0.84420456697025   -0.30753749015089   -2.08897536528721
H           0.41093651361313   -1.49198966855281   -1.32375775916285
H           0.36985959424768    0.37344576027756   -1.56428453875387
H           1.79710345991887   -0.19248240834573   -1.84923675356310
N          -0.00817776638604   -2.14917537000413   -0.53796134219723
H           0.06851956602028   -3.14370428283083   -0.72147973545280
H          -0.98924865553562   -1.80924038286313   -0.39438062567062
H           0.43270133815260   -1.84619788847024    0.35409332393648
