    23
        -45.35981436  Gyration_radius:  2.32613054342 Dipole_moment: 5.670
 S          -1.05128562270071    1.76733029236660   -0.61817891641379
O          -0.25152426093001    2.43652463225645    0.53692190346145
O          -1.81627967180146    0.68304645598916   -0.04703678320073
O          -1.75575761620199    2.71872113917606   -1.38971469906761
O           0.08604360737113    1.15474480863635   -1.48769044894884
O           0.80864110452826   -1.06933763299551    1.81767508870803
H           1.19048381411991   -1.81553453828092    2.28099739044115
O          -0.91650112080427    0.92185029393522    2.46963954851449
H          -1.66637748100448    0.61584125662086    1.93940218446970
H          -0.26314477689622    0.19475954374390    2.43963353624712
H          -0.48477618841281    1.93503616746264    1.38837078990768
O           1.97851126080210    0.68481081811756    0.18276565420909
H           1.65121429900277    0.00131346230833    0.81062703501588
H           0.86268916360075    0.93116859901296   -0.88396319151802
H           1.99791390911151    1.51629301475438    0.66475929098072
O          -0.85649869407533   -1.84292414645670    0.03330585390107
H          -1.38016541034333   -1.02543070633378   -0.04600427481691
H          -0.39289323922723   -1.93128116414184   -0.83278596827019
H           0.16022287108360   -1.45292998980939    1.13784185525906
N           0.41749016402770   -1.69824792825034   -2.36589431173802
H          -0.00611788681428   -2.15823148129199   -3.16175361919128
H           1.41462304202074   -1.86916957780541   -2.40116310045801
H           0.27348872354057   -0.69835330902093   -2.46775481749173
