    23
        -45.37137319  Gyration_radius:  2.4225812608 Dipole_moment: 4.870
 S          -0.99841693451976   -0.14649699406330   -0.70110408045593
O          -1.17051734753737   -0.91356383970283    0.52227681576034
O          -0.27976297202008    1.09722715986810   -0.46434376830335
O          -0.33073050948799   -0.94937405336093   -1.73814070192936
O          -2.42854737097997    0.20095076259503   -1.22771459441445
O           1.41085089830546    0.96097752970263    2.99070382904940
H           1.68221677748835    1.76288090819139    3.43983153028767
O          -1.53962936425273    0.31764389494277   -3.71892165175383
H          -2.31661504310966    0.44927300788820   -2.17033225076317
H          -0.87692950709083   -0.16963087828204   -3.19038093052641
H          -1.92808239593942   -0.31817789680884   -4.32423626181564
O          -1.05868307095256    1.32023958640444    2.08582174250017
H           0.45449603397525    1.08644599503451    2.76512248797011
H          -0.81159074099515    1.56139328835888    1.17469860546148
H          -1.42443472253481    0.43270119773918    1.97487893558238
O           2.15813856591529    0.53548668642004    0.48393598862803
H           1.37225820389521    0.91942675870746    0.03801546873538
H           2.02057968788878    0.72472407706557    1.44521724293322
H           1.80336965992712   -0.88833309698762    0.33089812341479
N           1.24786916890243   -1.82554134883293    0.13610983645027
H           0.37066154350570   -1.75875481052940    0.69163864176433
H           1.77370603397158   -2.67877988524390    0.29162337808656
H           0.86979338563100   -1.72071806911442   -0.83559836666886
