    23
        -45.36936452  Gyration_radius:  2.46340837492 Dipole_moment: 3.952
 S          -1.04581411012413    0.76181761433630   -0.03914963869442
O          -0.06997950380041    1.03855133192365   -1.10928222779236
O          -0.93868288726950    1.69114787556831    1.07108165171574
O          -2.44084148734178    0.98871938051771   -0.72855065888240
O          -0.96795498362413   -0.62488402354765    0.36914332585019
O           2.69424730502689   -1.24698888984013    1.06636750196128
H           2.83275208987702   -1.41153421090608    2.00020689840290
O          -3.50218844470236    1.67004385743341    1.60626884328036
H          -3.82345641231727    2.57202911229117    1.67444399701706
H          -3.06313496860187    1.13166087584924    0.01244926870842
H          -2.52658498271227    1.71927479950711    1.68837421696685
O           1.72961358923317    1.24662119858618    0.87618942919652
H           0.96928288766312    1.46947804114841    1.43072339956123
H           2.39276623900885   -0.31161941645342    0.99919597883687
H           1.36262384532590    1.33152717942245   -0.01693795355978
O           0.73206744373144   -2.52314398417712   -0.18856579964485
H           0.84106964836041   -1.80434586012060   -1.42772171317999
H           1.51518148273583   -2.20230306886650    0.31943005846558
H          -0.01538616815950   -1.98045274491073    0.15515363694180
N           0.84542742677140   -1.06959156788998   -2.27595461172047
H           0.43431385089265   -0.16796322209194   -1.84233451871724
H           0.25440736283553   -1.38379225141886   -3.03801088114567
H           1.79027077708040   -0.89425203634134   -2.60252019353102
