    23
        -45.36936444  Gyration_radius:  2.46346113003 Dipole_moment: 3.953
 S           0.66577182032570    0.77844689554833    0.79075973544478
O           2.07506925285975    1.41532762256411    1.07557763753568
O           0.22295239587459    1.43436574265431   -0.45322731733678
O           0.85069131544575   -0.64105239801163    0.57514059822253
O          -0.19687016652167    1.07725937252863    1.91955570259049
O          -2.35759259383084   -1.82148898832932   -1.03790876132343
H          -2.82921848774472   -2.40931111391161   -0.44598549178475
O          -2.22910597156547    0.55112200774906    0.20296814248710
H          -1.55590897400477    1.06904421010965   -0.26407069569877
H          -2.36250690560964   -0.93858900761778   -0.60129956391891
H          -1.89668355376513    0.55666105730481    1.11118822157702
O           0.24253979278745   -2.20293019178885   -1.42364389701896
H           0.46995005938119   -1.00560414061366   -2.18463731537195
H           0.55682444159505   -1.81926262082474   -0.57193195202395
H          -0.73996973141964   -2.22006499841302   -1.33129691195644
O           1.74142284003953    1.03018671239143    3.67995504940529
H           1.70347880312505    1.82197348693598    4.22131308381579
H           0.86621695282516    0.95270047289524    3.24517116005508
H           2.23287719605010    1.25295678862268    2.02711609288176
N           0.61016744054434    0.03433966940835   -2.58226096780586
H           1.53961534693236    0.15823030618519   -2.96893542806614
H           0.48955434763065    0.66490546106607   -1.71168539576311
H          -0.09927562093423    0.26078366348463   -3.27186171597007
