    23
        -45.37152235  Gyration_radius:  2.43830784616 Dipole_moment: 4.155
 S           0.11894802963192    0.38590199283184    1.14050264596105
O           0.48823266818484    1.44539281020866    2.22821981218330
O           0.02854750138685   -0.92223597338340    1.79678168003090
O          -1.13820147682295    0.80328894795106    0.55539001367371
O           1.19710386324304    0.36702106345225    0.14503681573080
O          -0.86483572706905    0.72952160850504   -3.29330428779106
H          -1.45495362619712    1.24715258764332   -3.84286420238198
O           0.04265474257028    2.29918463686376   -1.35070612476735
H          -0.45822655606448    1.36707599037011   -2.65416025717739
H          -0.63375307448836    2.08885582966135   -0.68659242766032
H           0.81744289971385    1.82428446090781   -1.01429365222026
O           1.74947946234535   -0.36219325551489    3.70204008704122
H           1.12606789158751    1.01164049567258    2.83430897158798
H           1.35437764899824   -0.47478708236805    4.56958213938551
H           1.16306033660190   -0.82370389451983    3.06719938339607
O          -1.82542757609441   -0.88652209662465   -1.42357228250863
H          -1.81417956288808   -0.25665685461731   -0.67345717704141
H          -1.56393565736790   -0.34858832030446   -2.21113312727143
H          -0.59573300801863   -1.64548786398368   -1.06933995874027
N           0.35523275634313   -1.95055123168316   -0.60476981628788
H           0.15638368981928   -2.08354444676182    0.40300073795958
H           0.94153426872664   -1.07169972752859   -0.57352045250911
H           0.81018047586639   -2.74334968678629   -1.04434851056499
