    23
        -45.37152255  Gyration_radius:  2.43830588521 Dipole_moment: 4.156
 S          -0.73301780784675    0.46378191513325    0.84236210308758
O          -0.11118280812906   -0.17186361869709    2.00837060273607
O          -1.12149385683522   -0.56194974831051   -0.13245738702865
O          -2.03264545869195    1.18553347182086    1.32415885359220
O           0.11267247717604    1.47490518958909    0.24270107870780
O           1.36088505506471    0.24720961372559   -3.19490332554271
H           1.66184475617475    0.86298937841738   -3.86465509539358
O          -0.93926151158201    1.14860217949692   -2.21695534419661
H           0.45423632318834    0.54867335778925   -2.93495053308050
H          -1.32038481587470    0.37491563732153   -1.77526625156878
H          -0.57441158431774    1.65349090084687   -1.47204874412811
O           2.34424019066648    0.33021579418807   -0.73431189769690
H           1.68101937143334    0.93235039219803   -0.33798665526698
H           1.80940703196014   -0.94701178210536   -0.19034386890225
H           2.11793829736838    0.30130091935027   -1.69663789412807
O          -2.35563497073751   -0.51802442902966    3.33005140289472
H          -1.43122732527146   -0.57600545126330    3.01065131448020
H          -2.32110579131963   -0.08984398169608    4.18844118351268
H          -2.43756323181918    0.60605540104608    2.00425651015655
N           1.15493720197737   -1.69893676106050    0.27833973298966
H           1.00855447133720   -1.38719343188933    1.25540850599942
H           1.47642412895596   -2.65720706420572    0.19395878322378
H           0.19576984713860   -1.52198788256785   -0.12818307447059
