    23
        -45.36936450  Gyration_radius:  2.46341141434 Dipole_moment: 3.952
 S          -0.45350425352673    1.15818932565327    0.35745610635388
O           0.94194856908999    1.18840662447411   -0.11763582628158
O          -1.17723847855662    0.07253024868746   -0.26960948401568
O          -0.55220622481969    1.14926469967476    1.80580003531759
O          -1.06139118456867    2.51238911771234   -0.16170072970694
O           0.97252301769316   -2.98939493844166    0.26555222122849
H           0.53126876959233   -3.60548963746033    0.85217991555996
O          -2.76735391416089    2.54471315075373    1.87082385766408
H          -2.05247742011024    1.90809616280044    2.08220693714406
H          -2.67104312276629    3.27227587376144    2.48954722419141
H          -1.84846986755389    2.66205040028744    0.39937884678772
O           1.37633525209873   -0.75394026631635    1.68855542557561
H           0.61290153972363   -0.38077636678979    2.15037698507348
H           1.16771172527999   -2.19182338333116    0.80963616961024
H           1.58936890881525   -0.05654239405107    1.04996320520004
O          -0.39677097460392   -1.92960753481280   -1.74838474585657
H           0.61380902953765   -0.99246741841378   -2.15442620148266
H           0.06843042716044   -2.47103099554059   -1.06671629898576
H          -0.91083656999463   -1.27291639332131   -1.22318105176165
N           1.35282891434328   -0.15700459585274   -2.27732141429231
H           1.16382721104996    0.38104374240735   -3.11610053980512
H           2.30480187683485   -0.50893703240673   -2.28280402858578
H           1.19553676930427    0.46097162038922   -1.40359661893494
