    23
        -45.35981421  Gyration_radius:  2.32627381684 Dipole_moment: 5.659
 S          -1.22256651714847    1.75544422641636   -0.16593019766853
O           0.16883403526753    1.92479353526154    0.18386532498164
O          -1.94862430983205    1.15777541451183    1.07387178966004
O          -1.90154474474220    2.88337941381644   -0.67933066704858
O          -1.32677295100513    0.59179658160063   -1.19550817081511
O           0.92632118401305   -1.41373807546093    1.49941820191136
H           1.50629291226577   -2.12644066351338    1.76947790244961
O           0.02861687988522    0.87464294631318    2.64933613623062
H          -1.24966318260353    1.04744645795857    1.80198185005006
H           0.38434408146981   -0.00975728379086    2.43084876864725
H           0.52568393901054    1.49560275205287    2.09758236861272
O           2.00262782781344    0.00849797922868   -0.33759335404671
H           1.42056543943495   -0.89629660178790    0.77993550304942
H           1.72580575757893   -0.32877746750846   -1.22212112787650
H           1.49077554477864    0.82754109072534   -0.21113420431010
O          -1.42792771436714   -1.52810221445422    0.24921576684441
H          -2.08224642994143   -1.26529848762471    0.90258213897564
H          -1.35656543865922   -0.28014206345704   -0.68888282904373
H          -0.56794307814409   -1.59909784767459    0.72234920346851
N           0.89570985041752   -0.75335168390592   -2.70302506291495
H           0.61722691641370   -1.71842952712268   -2.82883060928879
H           1.33929526374694   -0.44277288529225   -3.55814329928934
H           0.05175474435164   -0.20471558629316   -2.56996541257972
