    23
        -45.37137319  Gyration_radius:  2.42258313464 Dipole_moment: 4.867
 S          -0.79068960911641    0.72256286410518    0.60345866328278
O          -2.14067091255638    1.07598384215677    1.30779757274590
O           0.02100999759484    0.00659261610441    1.57457419419390
O          -1.08078341160408   -0.09319861800003   -0.56689786690413
O          -0.15279938091113    1.99054112435015    0.21435840549605
O           1.27259859338130   -3.13840080075366   -0.61899599411852
H           1.05973915297583   -3.92047119436622   -1.13033311694144
O           1.21636149776226   -0.75215112083773   -1.77033641582323
H           1.89547961093881    0.06009041305101   -0.74270766413417
H           1.31776194251167   -1.68479986814590   -1.45628252409909
H           0.29192775278460   -0.51079081113394   -1.54447488477831
O          -2.46139254229660    3.19055236293994   -0.25307977734404
H          -1.52074738853286    2.92751785434214   -0.29886870498386
H          -2.54804894363082    1.78831654815392    0.77001652880603
H          -2.48705271293124    4.03626618481478    0.20038724596244
O          -0.89615280828019   -2.42355868481467    0.73451524309660
H           0.48330786786915   -2.96532927020616   -0.04598079992796
H          -0.57446797064178   -1.90060818203216    1.48060490043323
H          -1.19802134464687   -1.73811854289364    0.11119934685111
N           2.09946621614777    0.68874335909448    0.14495244732079
H           3.07407731130738    0.93088349880188    0.28715164552286
H           1.66082820047725    0.19749300560800    0.95062880107943
H           1.45826889145151    1.51188340967303    0.04831274418532
