    23
        -45.37137327  Gyration_radius:  2.42273088582 Dipole_moment: 4.865
 S          -1.21170136842779    0.20344041296084   -0.04648796176334
O          -0.16904373728801    1.03783609224216   -0.62608732125824
O          -0.86521120562042   -0.24321132225706    1.29334468300261
O          -2.51579715897718    1.05606508339836    0.07897956832502
O          -1.51629227892337   -0.93968165911493   -0.92192938309814
O           3.06671048567598    0.65379730923377    1.42317478248740
H           3.76013875139017    1.31389108633724    1.38092521985876
O           0.75018700632787    1.91325248811999    1.72913871340253
H           0.15245707408931    1.26386853927656    2.12245801922870
H           2.23681851627048    1.14598122691511    1.64751432729713
H           0.48844534501208    1.89924532453330    0.79064479449985
O           2.09136223019957   -0.38170170949655   -0.81287365227115
H           2.58782861243844   -0.02467693986083   -0.03521316942714
H           1.32616475464122   -1.52137972814734   -0.27225550592942
H           1.34049705967594    0.23844888967300   -0.93719677873980
O          -3.21781879762969    0.44275534631634   -2.39917049813985
H          -2.89649747141267    1.10267721832380   -0.82406710489058
H          -2.54384107602347   -0.20506765841866   -2.11254848159362
H          -4.04279544781693   -0.04050120843947   -2.48500002260765
N           0.52075219556459   -2.14602135347623    0.15906164160026
H           0.77306502721961   -3.11209491681929    0.33718501526876
H          -0.29452349663814   -2.02335006045448   -0.48748016052521
H           0.17909499029633   -1.63357245083032    0.99788327525027
