    23
        -45.37137319  Gyration_radius:  2.42270197497 Dipole_moment: 4.865
 S          -0.76357019056118   -0.88098226709604   -0.39059346929580
O           0.47964957025135   -0.46638109768997   -1.02449876491676
O          -1.62262632413722   -1.65337043985533   -1.44348303853568
O          -0.50123254733230   -1.80408058182283    0.72522729991611
O          -1.55307098477177    0.25821682774040    0.04924130910748
O           1.15710762783320    3.23619794124109   -0.21907710500336
H           1.75280865128910    3.75754677638714   -0.75912315416965
O           1.95465818006171    0.89870727303059    0.74178042626723
H           1.78349255094505    1.82384882413447    0.43577358316839
H           0.88605249511095    0.62876049855147    1.72275755069356
H           1.61919411643795    0.32870627477910    0.01622920839264
O          -0.46613933812204    1.90030421566692   -1.83989462563405
H          -1.24565608285341    1.68919503411656   -1.30928288085373
H           0.49874060889545    2.84103897063053   -0.84486810700048
H           0.02902626073925    1.06125366232052   -1.82975823955786
O          -0.40376038096376   -3.92695225415964   -0.84759149038085
H          -1.22531812413645   -2.54775636142027   -1.51303567141698
H          -0.24168399260433   -3.30207414690383   -0.11322008280349
H          -0.97145248578613   -4.61792408240340   -0.49857194393632
N          -0.05945043239496    0.29845522913853    2.19351562365338
H          -0.13346941560227   -0.72224813738147    1.96798876356384
H          -0.82374424083993    0.68194259387346    1.60076631476681
H          -0.14955552144874    0.51759525710996    3.17971850397080
