    23
        -45.36936435  Gyration_radius:  2.46335526675 Dipole_moment: 3.953
 S          -0.34666120452698    0.97376562018705    0.77845120718116
O           0.92286565731512    1.20721669266221    0.06601886315529
O          -0.56141796141397   -0.44408909785995    0.97657077203564
O          -0.11874772218592    1.63326739009973    2.18769591361669
O          -1.47296762478585    1.63977897864304    0.14951121609390
O          -0.10509523465427   -1.99760519811981   -2.43869804362860
H          -0.93751090240134   -2.35210025565590   -2.75460850826946
O           0.66514588230383   -2.54840294821588    0.04277909298840
H           0.06395085346098   -1.92010109753088    0.50665496853000
H           0.37219456290409   -2.51007448333598   -0.89896337470004
H           1.79764744530093   -1.66447219594521    0.06035304192769
O          -2.72051499174844    2.11035319202255    2.40348101934773
H          -2.97760589385513    3.03440161122977    2.44187603540270
H          -2.52192740947458    1.91954124693117    1.46265153797831
H          -1.01879350153899    1.78011899405958    2.54116537353000
O          -0.46865637278750    0.64381616575112   -2.16359496556780
H          -0.22797297931913   -1.02138468094986   -2.39288232797409
H          -1.23861752348581    0.93192628781375   -1.65411708379452
H           0.26708823354191    0.96745507382928   -1.62196772129526
N           2.52601916054182   -0.81090027960733    0.07328004433970
H           1.89680044358044    0.06837037299207    0.10476257745303
H           3.09103416757014   -0.79957201639577   -0.76976556713451
H           3.11374292560514   -0.84130936278864    0.89934592864005
