    23
        -45.37152241  Gyration_radius:  2.43864973175 Dipole_moment: 4.154
 S          -0.16068969682220    0.40202253679488   -1.12835402285260
O          -0.64306245413292    1.44374599522713   -2.18856777858224
O           1.04008715628842    0.94104930710521   -0.52444476289468
O          -1.23248521279628    0.23388431938763   -0.14030127870279
O           0.07832797074769   -0.86860380091132   -1.82048704527121
O           0.76764334595519    0.72836827240809    3.31813982299820
H           1.29543198368083    1.29356259480080    3.88393108947517
O          -0.30697595198520    2.24045701409558    1.41535042078720
H          -1.02206966279128    1.69084204912164    1.06095811681883
H           0.29277858541208    1.33369722544976    2.69497676558870
H           0.39086611308929    2.12694563781264    0.74983131735035
O           1.90884903491139   -0.71632518680332    1.40994365015755
H           1.82841636366570   -0.07053487310846    0.67779843633894
H           1.58617654167820   -0.23386162040326    2.21064659190695
H           0.77345081283675   -1.59862895934630    1.02711439170916
O          -1.68079780779251   -0.44978973740991   -3.72708462410273
H          -1.26873180765857   -0.49032056480587   -4.59304767638994
H          -1.05089299674442   -0.86139743803310   -3.09966991312926
H          -1.22295842815877    0.95804200711658   -2.81320430906238
N          -0.13574528939036   -1.99494108082652    0.54814816197344
H          -0.49767814724865   -2.84854149477534    0.95936801588588
H           0.07871901791105   -2.07088172081579   -0.46275765374663
H          -0.81865948064964   -1.18879048207416    0.54171229374524
