    23
        -45.35981400  Gyration_radius:  2.32639504314 Dipole_moment: 5.648
 S           1.38172123737996    1.63895127986384    0.04502032812052
O           2.08731030550171    0.79163322247232    1.14314502034940
O           0.02616490768545    1.87823046984308    0.48349571537926
O           2.14986201057014    2.76642125286117   -0.32326917983605
O           1.33692592270305    0.64523804646857   -1.15310281478220
O          -1.00792565755539   -1.54288631985780    1.30899705683463
H          -1.64513570294173   -2.23350560960728    1.49412366750395
O          -2.00171780661051    0.24174364589557   -0.23480976143005
H          -1.79008894657376    0.02520537675669   -1.17346799140522
H          -1.47309258551508   -0.87647622319307    0.70146754790952
H          -1.40861543090068    0.98085109665654   -0.00938119345852
O           0.14551076095897    0.44674264992827    2.75032913032153
H          -0.30163092843191   -0.35658408310657    2.41706193506368
H           1.40570554055618    0.63318971619021    1.87870389069792
H          -0.30713539360325    1.18892853777237    2.32452175597446
O           1.28218134155833   -1.67386343815322   -0.05364683737606
H           1.30016466448101   -0.29413143498166   -0.78692582058349
H           1.97979794908260   -1.57627408828241    0.60049931222961
H           0.43523350693957   -1.73950357905115    0.44319058105608
N          -1.05757894003428   -0.22905087442712   -2.74226118430080
H          -0.15787520763615    0.20686029443046   -2.56479536307839
H          -1.49578480622560    0.26021642824731   -3.51234676898196
H          -0.88399675138938   -1.18193636672325   -3.03654903620896
