    23
        -45.37152246  Gyration_radius:  2.43847353703 Dipole_moment: 4.155
 S           0.71260219858836    0.85649044796637    0.47018275870890
O           1.75295224721573    0.83072839620042   -0.56289881494513
O           0.70100112693506   -0.34513254480437    1.27835621185220
O           1.01987431130688    2.04863845937742    1.43272824781974
O          -0.59469421868492    1.10227394980911   -0.14952570951363
O          -2.47478607051545   -2.39631557735115    0.51007000278067
H          -2.81603591986024   -3.03726709052821    1.13536622513354
O          -1.92884905019953   -0.15878658188944    1.83497518942663
H          -1.86654926056536    0.51225614479009    1.13884917900797
H          -2.39039460845160   -1.54574252698436    1.01001704014730
H          -0.99542426406957   -0.34615182545825    2.02643826616128
O           2.24371317070828    3.41112484734420   -0.48450348397616
H           1.35355587507153    2.78087035920470    0.87169909724157
H           3.16712470933486    3.58179977945922   -0.28582403413195
H           2.18589563778356    2.47027308809187   -0.75158974146362
O           0.06378057741404   -2.46593494655949   -0.25178918822539
H           0.02814949194931   -1.50849586459722   -1.39025953856729
H           0.42965949734303   -1.85718971520423    0.42277985426508
H          -0.88517894999160   -2.58396514200093    0.00048937797581
N           0.05101199606289   -0.58403439994717   -1.98857990932772
H           0.99891841831341   -0.18380674688781   -1.86834769449195
H          -0.52539124900191    0.11310137468708   -1.44205463216286
H          -0.23093567669550   -0.69473388472254   -2.95657871370910
