    23
        -45.36936421  Gyration_radius:  2.46317308328 Dipole_moment: 3.951
 S          -1.12519900898101    0.12757320096437    0.62596526942287
O          -0.87126372274635    0.28540907916355   -0.79047877187686
O          -2.57269205675351   -0.46226010497449    0.79830803467321
O          -0.24667825456984   -0.91160962720273    1.19353192495795
O          -1.06114469017363    1.37817029820232    1.36064083599442
O           2.86935091825066    0.74701276465248   -1.07534080809219
H           3.06930586441205    1.63442117145123   -1.37693912572452
O          -3.57264532133306    1.99170639044956    0.94312217166858
H          -3.16508676142132    0.31377664404105    0.73865422503462
H          -3.98862310422544    2.22816376202186    1.77530715336456
H          -2.60561304515800    2.04675474487176    1.09407353939649
O           1.62406116756011    1.01720204663850    1.28265967931914
H           0.87184952485287    1.62440243849788    1.31612644857358
H           1.20565857354634    0.16382181959344    1.47222694370959
H           2.46282484159416    0.85043116765312   -0.18415790231389
O           1.00160589032727   -0.64692944210383   -2.34868205747576
H           1.76920354809875   -0.11731802119147   -2.02524599492796
H           0.96064967060012   -1.74680602510633   -1.42516699268138
H           0.21672589734166   -0.19006892183379   -1.96591194353068
N           0.83446888538250   -2.45554620104803   -0.56435330748725
H           1.73348198011879   -2.78119019723226   -0.22398322216616
H           0.24085642112306   -3.23839713246576   -0.81642003535302
H           0.34890278212523   -1.85871983505159    0.19606392554304
