    23
        -45.37152227  Gyration_radius:  2.43836939168 Dipole_moment: 4.153
 S           1.10773570065542   -0.48612962317540    0.00594274760214
O           2.63551872660771   -0.48482041747378    0.33455869409761
O           0.91642092397759    0.41401523236742   -1.11211859040524
O           0.71447924145595   -1.86397184808467   -0.30610585069081
O           0.38916501877721   -0.02448446364588    1.19923139572228
O          -1.97831056060457    2.84630627623894   -0.33883936208349
H          -2.05488080623790    3.68577051320147   -0.79447946226301
O           0.54032128581296    2.57020095782842    0.46156774313789
H          -1.06544905379817    2.82645401903233    0.04407527218026
H           0.49424580179373    1.86937634750754    1.12933178522371
H           0.87256401356403    2.09337687818496   -0.31622519091483
O          -1.70399269185543    0.58858415040876   -1.70161271412939
H          -1.91362428018341   -0.40679370330857   -0.61581541887317
H          -1.91971493777171    1.45830886726827   -1.28317947064508
H          -0.72527902423237    0.55622336817010   -1.72505487269664
O           2.55379601184189   -2.99172518258179    1.19418532558550
H           1.75619439087153   -2.81589390466415    0.65306532979305
H           3.10984320002055   -3.57899526123757    0.67723302785759
H           2.81295005461997   -1.30802515361329    0.83768844823285
N          -1.74515279317545   -1.09474441014999    0.22772827871768
H          -1.08949111753671   -1.81970849409629   -0.11588775037763
H          -2.58869002224439   -1.46709059754614    0.65030122683128
H          -1.11864909236081   -0.56623354063062    0.89440938808858
