    23
        -45.37152252  Gyration_radius:  2.43842345242 Dipole_moment: 4.156
 S           0.02276623636701    0.81613682055428   -0.89144678458361
O          -0.87557440755376    0.11737644938940   -1.81610248969743
O           1.29583386555929    0.14325779818791   -0.73746901972442
O           0.32450139966584    2.22825165220633   -1.48887129615836
O          -0.64654151008397    1.00629808840951    0.40051134999194
O           1.54973053316337   -1.35633567674609    2.80731936430923
H           2.39859326423037   -1.56017852244192    3.20261206395868
O           0.92047651113545   -2.26792952112014    0.39854729429791
H          -0.53218595667885   -1.94835555482740    0.36267886141736
H           1.23772031027553   -1.50494120194758   -0.12747823397312
H           1.19385278626847   -2.06695854971463    1.32750502669653
O           1.68996461371802    1.08050609410057    1.75784405463710
H           1.95137010512376    0.81981868402593    0.85962701648780
H           0.76227073774049    1.33320216292102    1.63799783932648
H           1.59924577863173   -0.40725855886684    2.52928757060845
O          -1.99852114603028    2.29551677958146   -2.76513511377177
H          -1.80003797542823    1.36871643368271   -2.51714413407053
H          -0.51000010925192    2.54194815264609   -1.89810244620147
H          -1.89609216311568    2.35067287483389   -3.71791632588276
N          -1.49086973441332   -1.42287346595358    0.22815659293362
H          -2.29887767118127   -1.90411277795803    0.60798351075943
H          -1.56447857182178   -1.20766338664953   -0.78255978884361
H          -1.33314689632272   -0.45509475432355    0.62215510747975
