    23
        -45.36936429  Gyration_radius:  2.46326871183 Dipole_moment: 3.951
 S          -0.24055496783121   -0.76222429676203    1.01844708451630
O          -0.90064982992938    0.06048850515176    2.01609969121999
O          -0.22224222695936   -2.24325693620897    1.54655040543709
O          -0.91241797173223   -0.75162936900500   -0.26380579465467
O           1.18525497100736   -0.42427995925873    0.85493843559117
O          -0.02306046325275    2.57819991276928   -1.81593981763199
H          -0.80378410989287    3.12980533068565   -1.88399696631563
O           0.35591414792715    2.13196781418755    0.79975125707691
H           0.97714023230455    1.39089328365682    0.86557709518099
H           0.14328647816580    2.46427942179441   -0.85177396480167
H          -0.40224016846311    1.80752032713687    1.30519674985015
O          -0.16104845551550    0.05327414839806   -2.62854375171528
H          -0.16033133701516    1.02933985611704   -2.48206879769545
H           1.13326636288925   -0.34192350286563   -2.14566462462925
H          -0.65086591749811   -0.30546437550840   -1.85220180266067
O          -2.52027173433755   -1.83785454744967    2.81027351973689
H          -2.49255766731886   -1.90483788329813    3.76743219388701
H          -2.13708997128293   -0.96408819601983    2.58498347840926
H          -1.09904045101156   -2.36947794271344    1.96124710510233
N           2.05004964479025   -0.62652737470110   -1.56457956801400
H           2.79949734208900    0.04134924173507   -1.71439643801018
H           2.35487531133578   -1.56617041244244   -1.79458764513398
H           1.72687080172507   -0.58938304540109   -0.53293783483531
