    23
        -45.36936432  Gyration_radius:  2.4633532247 Dipole_moment: 3.953
 S           0.28662971638942   -0.83529315618870    0.94568048435305
O           0.57408793527335   -0.95782821203737   -0.46782599544890
O          -0.95523561925119   -1.47926726602040    1.33398374147753
O           1.45729984129417   -1.51989770193239    1.74173197181966
O           0.34985689229454    0.57735092468426    1.36298055220256
O          -1.72417258396520    1.52132084127974   -2.15977801073805
H          -2.37517966679337    1.05922789702758   -2.68992935416023
O           0.14169736367175   -3.82471379959289    1.72634689427245
H          -0.12312810088211   -4.16418190737247    2.58429348433571
H          -0.49194803245969   -3.10978855350554    1.50641684840334
H           1.23467833741298   -2.47228039883239    1.73966953779508
O           0.82840604068352    0.81614694245287   -2.36326170215768
H          -0.11164997631124    1.10327925900864   -2.45294181275107
H           1.30826642430653    1.62915747104948   -1.28022971158398
H           0.77693869100788   -0.01003634177024   -1.82829967706047
O          -2.14364441375929    0.76162632348936    0.37635726908359
H          -1.35397570252181    1.02085801435809    0.87493241265897
H          -1.91902710567331    1.28164419856820   -1.22445858149846
H          -2.19085185785570   -0.18874665772315    0.54969112441012
N           1.57009444312577    2.11793430383442   -0.30459249912877
H           1.10452728435201    1.48386928222797    0.43786259699316
H           1.18253198517976    3.05433769421187   -0.24904983109415
H           2.57379810601034    2.13528085142138   -0.15957972263092
