    23
        -45.37152234  Gyration_radius:  2.43836810446 Dipole_moment: 4.158
 S           0.19369847193481    1.15308354536092   -0.31132876944893
O           1.19908524308539    0.26494242848330    0.28378351649722
O          -1.10724995996293    0.96674520232735    0.29686291371124
O           0.62404428317308    2.62728167655970   -0.02210479932421
O           0.16802729669047    0.96721807454872   -1.76550380535088
O          -1.10403861824593   -2.26980263512983    2.39881261683837
H          -1.73780302484256   -2.40532873431770    3.10464588042359
O           2.01005087758969    2.76960647613927   -2.27802306280148
H           1.67869251688227    3.44329022095597   -2.87613230670760
H           1.30823862263964    2.85341385666658   -0.68771462599254
H           1.38712391232063    2.01555784969720   -2.33559333572075
O          -0.08476833081354    0.17024151403002    2.66010777988882
H          -0.66290160922997   -1.40436669867734    2.59053282474040
H           0.71849644639048    0.14288546550947    2.11870151073059
H          -0.70958697797519    0.63525244745264    2.08028114495738
O          -1.90850976186469   -1.58139425490565   -0.03189104174413
H          -1.71045637621771   -1.94413692835274    0.86659337905514
H          -1.85328001742526   -0.60884450908413    0.07126824026035
H          -0.64686922175735   -1.77597282241835   -0.79552439810040
N           0.33871570890858   -1.61140001278544   -1.25923453415955
H           0.21323204764972   -0.84418092268484   -1.94345105725817
H           0.77292275376156   -2.44262117528120   -1.64566622251249
H           0.91313572731269   -1.12147004409083   -0.51942183798870
