    23
        -45.36936443  Gyration_radius:  2.46339621194 Dipole_moment: 3.952
 S           0.37150468676725   -0.81585413313776    0.93324961376038
O           0.05591679526479   -1.33318378323844    2.38434811916140
O           1.40263013477120   -1.66773751917983    0.36875091983879
O          -0.86057169529714   -0.83301236297844    0.17347191017189
O           0.82887705513911    0.57041282197262    1.14058762564069
O          -0.17835600309919    1.30906146622235   -2.86497787100612
H          -0.18540724228746    0.77022064140171   -3.65742088977831
O           1.82987838944883    0.38819977726173   -1.34714001691762
H           1.85413383508060   -0.56367816225203   -1.17750214881118
H           0.59524162659397    1.00294311271489   -2.33768869514743
H           1.69134580458029    0.75023670335007   -0.45876652285879
O          -2.15264015187605    1.03463230916491   -1.10986977894882
H          -1.54056683226778    1.16936618381899   -1.87239276737290
H          -1.84762482488658    0.18994280116519   -0.70388779890274
H          -1.58068248736758    1.87006836085867   -0.09066545125787
O           0.61149658418730   -3.81818773721516    1.63697821486124
H           1.36214832958125   -4.23009840559825    2.07090043076788
H           0.07108372585606   -2.30821952206466    2.30839804905801
H           0.98325078484063   -3.20734548652936    0.96640813972380
N          -0.98408694852727    2.35516626967404    0.72675648542000
H          -0.54908400837992    3.21284650831755    0.40230710563224
H          -0.22231712423620    1.62426088387896    0.96231715245351
H          -1.55617043386619    2.52995926243846    1.54583818451938
