    23
        -45.35981436  Gyration_radius:  2.32611207727 Dipole_moment: 5.671
 S           1.72997378555464    1.21299409473898   -0.38314111282493
O           0.39930146564397    1.42966650909914   -1.16237485100174
O           1.91954176734242   -0.20748351852817   -0.20041028539649
O           2.76297423602742    1.92413148080863   -1.03421346176498
O           1.39413883975365    1.82421907950324    1.00800473567581
O          -1.13147440424451   -1.05057368125097    1.64831894899521
H          -1.79778470182918   -1.64529691912363    1.99417646323640
O          -1.41168919937257    1.41091227452532    0.65774263504204
H          -0.36216538898061    1.41801873052847   -0.50080492073050
H          -1.41612906399110    0.51119603782499    1.05647942430520
H          -1.01469938575711    1.99880095224811    1.30646213431081
O           1.35639619183499   -0.29034440891293    2.42181699595251
H           0.43694760463446   -0.61421981315909    2.34328438910424
H           1.84814299653436   -0.73934119364336    1.71918688882961
H           1.40303601206141    1.06073002996806    1.67725027559240
O          -0.11213933231498   -1.96272627556679   -0.51592379057486
H          -0.60243367498901   -1.59720096134178   -1.28978857968157
H           0.73057343865603   -1.47445019845855   -0.50085879495108
H          -0.77260107969947   -1.48023536061440    0.80194905672108
N          -1.27796064333044   -0.62205127370263   -2.57589982239296
H          -0.68458058651704    0.19613463873892   -2.47907541049148
H          -2.23833380174638   -0.31694914399580   -2.47933412261087
H          -1.15903508526595   -0.98593109969200   -3.51284678534414
