    23
        -45.37152256  Gyration_radius:  2.43845949074 Dipole_moment: 4.153
 S          -0.61818273358442    0.79206432126844   -0.67198294151531
O           0.63440117288595    0.14663757047923   -1.08156767552260
O          -1.37116307682367    1.24401484186141   -1.96454360883165
O          -1.49079811931986   -0.13210081437170    0.02206168485179
O          -0.32165785336378    1.98977485199427    0.12007935069996
O           0.48009377248565   -3.30461678891934    0.98234562923824
H           0.03475036935314   -4.13457806667393    1.15854326579937
O          -0.20515059182727    3.62498440109092   -1.93338696941396
H          -0.95925958327364    2.08846984457973   -2.24652422205710
H          -0.83444216603932    4.34357968337283   -1.83892742529698
H          -0.11461491379897    3.21623028128887   -1.04755373368322
O          -0.25652975473409   -1.07805549739916    2.21872840017419
H           0.02000315991926   -1.96970239600117    1.89230449456241
H           0.87231323747386   -0.18310507346011    1.84792886615685
H          -0.90352015127617   -0.75734477996525    1.55689474220653
O          -0.51786613036529   -2.29183254250440   -1.26205833562267
H           0.14222515274472   -1.63605549337532   -1.53238895103257
H           0.16943330681556   -3.01300629055492    0.08850664797993
H          -1.20667829495546   -1.73856802312732   -0.85896670359751
N           1.51789471122354    0.52881369666075    1.30942487786210
H           1.49410373231938    0.21494764449941    0.30056504839968
H           2.45044577246475    0.63505447110898    1.69394119723674
H           0.98419898165071    1.41439417814290    1.24657636139210
