    23
        -45.37152244  Gyration_radius:  2.43827026917 Dipole_moment: 4.155
 S          -0.72784021413421    0.00766914419082   -0.96560640632769
O          -1.15144091680882   -1.39469712300835   -0.89878770530187
O          -1.02002552636336    0.67435631756984    0.30845134242676
O           0.66522557780524    0.15109093853712   -1.33422164313183
O          -1.56766061593848    0.71117111594564   -2.08000473909640
O           2.68069805761003    1.43770574417663    1.69288878208068
H           3.52238845669122    1.88144246387415    1.57923481551751
O          -3.60318117106353   -0.95271122028792   -1.73506575932598
H          -2.47391978322036    0.34039069803318   -2.02172960903904
H          -3.79839953966953   -1.46729808904109   -2.52146847423913
H          -2.79984614180448   -1.34752168705522   -1.33672500005293
O           2.22872364467033   -0.92369876310288    0.57522110748431
H           2.52274886045783   -0.10284539686943    1.04190570715344
H           0.96271942180197   -1.30395633667243    1.25793333102888
H           1.83721774886790   -0.60865781659438   -0.26553139087514
O           0.95237580093708    2.49114906211561   -0.02871287633930
H           0.08891961465420    2.21967578948818    0.31716147311943
H           2.03564015849738    1.92699565784189    1.12292444166550
H           1.09221458595779    1.86132061251101   -0.75446264402191
N          -0.10300719436159   -1.41081883905301    1.51517964264583
H          -0.54198242035180   -1.92029758270292    0.72691377081215
H          -0.51789940376080   -0.44868421866960    1.37980116446662
H          -0.28366897046527   -1.82178047129610    2.42470064936871
