    23
        -45.37152236  Gyration_radius:  2.43857414224 Dipole_moment: 4.152
 S          -0.91646367859605   -0.64037051412741   -0.46121107246736
O          -1.65325229172568    0.47893397451576   -1.05646171950597
O          -1.79648290785976   -1.92407656065083   -0.60075919782006
O           0.33255039760212   -0.90986165822592   -1.14274411139996
O          -0.70695526235607   -0.39022458912802    0.96961067175121
O           3.29208289859550    0.05619442145383    1.13591935779356
H           4.16297999604925   -0.32054347537387    1.00259068321961
O           1.51880101283124   -1.92114745324279    1.05575611470512
H           0.72723514316991   -1.53819636822889    1.46271665487993
H           1.31058932894816   -1.86996843002730    0.10869153769452
H           2.67224157002768   -0.71175545602470    1.21539164066200
O          -4.03962698305905   -0.51041899897710   -0.57415803092347
H          -2.72422519344402   -1.64331214314105   -0.45007790294480
H          -3.29106153444085    0.08682092889685   -0.78097120763850
H          -4.54524631675617   -0.60426681686549   -1.38463261016895
O           1.98925644673608    1.19417109782929   -0.87377496653696
H           1.49659443125454    0.40695486950089   -1.18537597054971
H           0.87675856202235    1.84953762177523   -0.13457846166513
H           2.58915625326530    0.85411922398958   -0.16496069589353
N          -0.08364313356405    2.03785749563773    0.37085719504359
H          -0.26117707140071    1.17643215743663    0.95682737349804
H          -0.81778264641029    1.93144995797586   -0.35218785591750
H          -0.13232899088691    2.91167070500807    0.88353257419636
