    23
        -45.37137322  Gyration_radius:  2.42269049183 Dipole_moment: 4.865
 S           1.11187331681906   -0.06609054100752   -0.52139888822191
O           0.82171876014692    0.28360309002939    0.86169751220261
O           2.61273980384242   -0.49172912640617   -0.62003136048735
O           0.31826195747620   -1.19855342816459   -0.97128331123581
O           0.92488922619463    1.09461248574153   -1.40662359015570
O          -2.45042209802052   -1.42425340069768    1.95474689970367
H          -2.65783666476464   -1.55110524476031    2.88170767295059
O           3.35865092442300    2.02575976544913   -0.96088510690984
H           2.40105061550306    1.97171872091071   -1.15092196776600
H           3.13165173422476    0.34076460033143   -0.60190506488400
H           3.79280050456319    2.21585954335804   -1.79569517121537
O          -1.75405694206518    0.97587656799897    1.07277785843037
H          -2.12656766177640    0.14865340674279    1.46727796328591
H          -0.78099839436501    0.87966493595293    1.16115679021113
H          -1.84738851053350    0.76483303209376   -0.38441330828197
O           0.06190580308266   -2.18466412061083    1.56080665477268
H          -1.55139815898650   -1.81819833641582    1.82100183937688
H           0.12465255218380   -2.39367353665635    0.61954260879590
H           0.45830368832979   -1.29570648036210    1.60622036734239
N          -1.60963033634291    0.50403533307507   -1.43338240139152
H          -1.22467327112549   -0.46243223275955   -1.40796438699372
H          -0.74501545149535    1.05060548887685   -1.66036332261533
H          -2.37051140730536    0.63041946725730   -2.09206827690294
