    23
        -45.37152241  Gyration_radius:  2.4386720407 Dipole_moment: 4.153
 S          -1.12154148598581   -0.16529528651064   -0.41993938849719
O          -0.73904115066392   -1.18964825908962    0.52951172884174
O           0.01982220101345    0.26934975469757   -1.23330098635127
O          -2.17849969533898   -0.80478990064010   -1.37690122799954
O          -1.74118858853505    0.99711303265976    0.22455910849036
O           3.10715590453397   -1.37932308755703    0.75921132820546
H           3.54608222182725   -2.16895710227474    1.07851080251807
O          -3.39968569628155    1.51956407821561   -1.74557287064603
H          -2.84020098456265    1.57945498872978   -0.94353943202678
H          -2.67304200386202   -0.06107004963211   -1.78262454227474
H          -4.31042996139752    1.51151809131022   -1.44263257936182
O           1.26825694690673   -2.11747109931599   -1.01100797285273
H           0.51970738243026   -2.19121790133511   -0.39687304253900
H           1.06494147265336   -1.29883338276480   -1.48783327931609
H           2.51371776873060   -1.67562553412283    0.02411895659141
O           1.17217667929601   -0.24238736916484    2.17105621016672
H           1.97134834738912   -0.66478364733638    1.76996295473868
H           1.02517282864287    1.04403611687924    1.43795571791474
H           0.41167093976826   -0.71178136737592    1.77005042748690
N           0.71334541910422    1.81161308557859    0.71217919956476
H          -0.30896058313498    1.92800809919277    0.83463843649838
H           0.74268583140244    1.33113017784765   -0.22836020831958
H           1.23650622605328    2.67939659201448    0.75683065915545
