    23
        -45.35981436  Gyration_radius:  2.32610221539 Dipole_moment: 5.671
 S          -1.02561943351619    1.78500741158162   -0.61057326656564
O           0.30193520542061    1.91663310406416   -0.05618770563696
O          -1.98796406874818    1.42291152706039    0.55752669300946
O          -1.51485143651544    2.86521252032529   -1.37902266354623
O          -1.06501914073713    0.49117068108951   -1.47616149150430
O           0.55331083387243   -1.22571454560743    1.81426855664958
H           1.01947025285568   -1.92486685306199    2.27380988226602
O          -0.31877243841470    1.25917768943508    2.47032233172158
H          -0.00933854208321    0.33197199934170    2.43899447742016
H           0.31089083512611    1.75879700422471    1.93087398995394
H          -1.42623001435947    1.38076311165578    1.40223896759744
O           2.02594675388932   -0.16461787479021    0.00859382120166
H           1.19856622618218   -0.85304572064734    1.12541719511949
H           1.86311478644273   -0.61402471137528   -0.85419713084192
H           1.57247560531963    0.69409707489124   -0.06752704980179
O          -1.56961841940852   -1.38207254205188    0.20584755369627
H          -1.24643805598693   -0.29296242880938   -0.86797533400834
H          -0.80593222779697   -1.43285381471379    0.82450893080660
H          -2.29637979327101   -0.98718935384229    0.69566925233574
N           1.24126614780356   -1.20853199458045   -2.37770217372720
H           0.89702509247277   -2.16007980267151   -2.40554622325815
H           1.84044762015501   -1.06996431665252   -3.18157414532025
H           0.44171422129549   -0.58981816486746   -2.47160445756221
