    23
        -45.36936460  Gyration_radius:  2.46352371108 Dipole_moment: 3.952
 S          -0.20731609724102   -0.41228729334776    1.21002534551459
O           0.06751012584337   -1.20752547923110    0.03203045797314
O           0.44311954474753   -1.13330818224957    2.44691494246576
O           0.50169259887971    0.87848212728675    1.13630802669282
O          -1.62595538950444   -0.25765473667842    1.47685440685900
O          -0.64675700644918    1.07259890597695   -2.89521087176890
H          -1.40695637504640    0.75657065443969   -3.38573023594889
O           1.25901746646041   -0.64987637200810   -2.22046023725579
H           0.78468237424931   -1.07982183255150   -1.47111727388894
H           0.57968986567104   -0.06170341745506   -2.62878027850567
H           2.00265679112907    0.25479584801048   -1.38793297868807
O          -1.53176404595029    1.66450094006053   -0.43515329183418
H          -2.04385225966283    0.98528993432347    0.02488583700032
H          -0.74681424535708    1.74486795428819    0.12793653756222
H          -0.98861809724724    1.34053779259268   -2.01111604361118
O          -1.81361911928927   -2.46030579202928    2.88085051207152
H          -0.20870342808668   -1.81435752357738    2.70776427884584
H          -2.25695688806842   -2.27482244570810    3.71179705536238
H          -2.01264914421529   -1.70461704969549    2.28893288250051
N           2.40610278744185    0.94356386058914   -0.59923360671557
H           1.65111517899985    0.92408071090173    0.17514920328793
H           2.50790953199717    1.88809983175841   -0.95648903035738
H           3.28646583065045    0.60289156345612   -0.22822561799772
