    23
        -45.36936461  Gyration_radius:  2.46352611289 Dipole_moment: 3.952
 S          -0.09929067862475    1.14900128960484    0.58764574480591
O           1.24288837302116    1.69105539590832    0.69795128405109
O          -0.23216772059076   -0.16731358702379    1.17525653276256
O          -1.07831515271532    2.12048083215466    1.34306380874776
O          -0.59973696312656    1.14617688288042   -0.79931106295927
O           1.35936959451400   -2.52837152750078   -1.30944003069773
H           2.15385132768007   -2.91505074686763   -0.93844553027220
O           0.84485613979185    2.75061148257017    3.05955080957641
H           1.13069886568088    3.66696367169287    3.05299412521680
H          -0.59005932021191    2.38838847383183    2.14715683699511
H           1.25953995123093    2.32814139044644    2.27815923534648
O          -0.85529340356186   -2.48619827532176    0.15594304901667
H          -1.62684823516550   -1.67405935792278   -0.74380889503996
H          -0.03535216833802   -2.66779118509606   -0.36264362825111
H          -0.60457981387916   -1.73831269105352    0.74683462407525
O           1.79753911904552    0.11296063607450   -1.43782471477458
H           1.54740182428266   -1.56632297587386   -1.40575145075956
H           0.93228631841007    0.52853203740150   -1.57301851700038
H           2.10940144984387    0.54883266984891   -0.63284841436796
N          -2.08810008362006   -0.87545909703892   -1.38311641242995
H          -1.51466255590295    0.01088041968564   -1.14735984509374
H          -3.06210196577281   -0.72770668474550   -1.14177370423124
H          -1.99132493181746   -1.09543905360968   -2.36921385471653
