    23
        -45.37152246  Gyration_radius:  2.43859564348 Dipole_moment: 4.149
 S          -1.17813560876808    0.05529740209006   -0.26857988394341
O          -0.53900133654540   -1.10200275270773   -0.85953099958225
O          -1.12130070161759    1.23532891657167   -1.13724802109120
O          -2.68165370112049   -0.31453631413407   -0.05727736522723
O          -0.60374155913876    0.37767797493631    1.04275637433745
O           2.70426903067092   -1.91836022237130    1.06426296484557
H           3.09309648953608   -2.79363545737724    1.03503701336358
O           2.09241494407335   -0.63030879551217   -1.17096973355415
H           2.45222377144302   -1.13414076164773   -0.39975410079256
H           1.16479696628561   -0.93277748088628   -1.25826912249211
H           1.81246872642246    0.72608100257105   -0.62739957181108
O           0.10099739161991   -2.18692806586049    1.52297882002437
H           1.76459982222456   -2.04715350119730    1.34864087659231
H          -0.17408231059104   -1.30531857346176    1.81622261670046
H          -0.19318544955594   -2.19869322017906    0.59763124602224
O          -3.45238404212922    2.19911143453118   -0.40022369195317
H          -2.54789749711315    2.09294457664613   -0.76143743509952
H          -4.03609670196677    2.30711255454462   -1.15449128474977
H          -3.16944863191668    0.53332045807461    0.01668075735904
N           1.30569010882229    1.59845770008002   -0.18532977137474
H           0.72983815144995    1.20986491727003    0.61088061834290
H           0.55678209893540    1.86599837572431   -0.84935286310798
H           1.91975005894177    2.36265983226222    0.07477254716884
