    23
        -45.37152254  Gyration_radius:  2.43840323215 Dipole_moment: 4.154
 S          -1.13932379690818    0.26465922690970    0.30451086329176
O          -2.55719694206476    0.86341138285085    0.03425966111920
O          -0.24433090233740    1.38268170857122    0.51955572622912
O          -1.23537434296657   -0.61332889804508    1.47491714932695
O          -0.74883603300752   -0.51997551024004   -0.87247182960702
O           2.91739266241944    0.94844200750300   -1.64557809128632
H           3.46677209002642    1.69747385281949   -1.88077115644204
O          -3.76126403298401   -1.23939712401685    1.11007187773948
H          -2.82576478529736   -1.22682406778600    1.40099564849211
H          -4.28881990563834   -1.01061138478859    1.87862712613956
H          -3.20225875828385    0.14866297824612    0.22230662720411
O           2.26644235947092    0.48412382604070    0.88233583022383
H           2.64800093300407    0.66909016509468   -0.01109749563970
H           1.42392340136855    0.98333878122799    0.90426408191973
H           1.68901366929710   -0.88163748802843    0.76182772246911
O           0.38326040398434    1.61089779746887   -2.09080737743907
H           1.99840131179960    1.18500362337847   -1.92836339520425
H          -0.07716763269568    0.75867672991498   -2.11280605128111
H           0.17613501742662    1.93564742866310   -1.19937515122702
N           0.99031488688097   -1.71859313577098    0.60455761424964
H           0.26403015138231   -1.63211625251623    1.33810110862049
H           1.42399870315035   -2.63432568902842    0.55866606909274
H           0.43265152197189   -1.45529995846263   -0.25372657798060
