    23
        -45.36936460  Gyration_radius:  2.46340946573 Dipole_moment: 3.943
 S           0.27224269987441   -1.15050951739884    0.52919316003530
O           1.27846664297260   -0.69248603444839   -0.44665535187252
O          -0.38470056520183   -0.01794410382273    1.14667403827994
O          -0.65712181492866   -2.11296917473929   -0.03398586249170
O           1.11981625775743   -1.88296217902365    1.63306919812194
O          -1.51584781820925    2.15948633525102   -1.72878572686241
H          -2.47250362482191    2.18081181057093   -1.77987574484820
O          -0.33673838262145    2.53694832611490    0.62124978991092
H           0.99579827687465    2.23014636295031    0.17835088061649
H          -0.84924540193725    2.54489876165897   -0.22212515788906
H          -0.50642219629086    1.64167435719888    0.99666164884150
O          -0.94573552920269   -3.44928757724559    2.20015101053708
H          -1.10836780579546   -3.03338802828647    1.32751247634142
H          -0.82157502050161   -4.38625932371986    2.03253964418563
H           0.47842194053355   -2.45677975222446    2.09794418019818
O          -0.79598055421556   -0.39148963807506   -2.12752503359700
H          -1.25526605113907    1.23128499047732   -1.93060496498921
H           0.12651986287732   -0.46420745377371   -1.83851460526674
H          -1.23240390740462   -1.06445418785277   -1.58741078446063
N           1.95695712131358    1.78012158134618   -0.18543156586883
H           2.21729695730734    2.15804430179261   -1.09072390777493
H           1.73254031297010    0.72607229804886   -0.27943448105473
H           2.70384862005087    1.91324785497462    0.48772717987562
