    23
        -45.35981436  Gyration_radius:  2.3260988077 Dipole_moment: 5.671
 S          -0.78520655769739    1.99586876822627   -0.10484941515035
O          -1.23464341517801    3.24637821750921   -0.58540984880968
O          -1.47796120000093    1.60701955684294    1.23326754642863
O          -1.28455143299667    0.87684323335683   -1.06570885773707
O           0.63838294417716    1.83140954761973    0.07795326649886
O           0.74247422960946   -1.56757154331203    1.44620358004867
H           1.16588652504790   -2.39416568705854    1.68022058378153
O           0.55127035519855    0.88704098029067    2.58813425855017
H           0.66049415185326   -0.06011793840512    2.37042032046244
H           1.11052889997811    1.36218764556726    1.95681822049011
H          -0.74265613460644    1.34559017317242    1.88277015043766
O           1.89477969374423   -0.47505573192322   -0.56219560949450
H           1.25518367637743   -1.19502544909923    0.65368146114689
H           1.44002093501890   -0.75188760085951   -1.39253026178795
H           1.60901550155480    0.44453606959707   -0.41553152112765
O          -1.70312349236089   -1.13769197453566    0.47026506263363
H          -1.45531309716430    0.04409344523650   -0.52253927680536
H          -0.83381175895744   -1.40302460938024    0.84768236009186
H          -2.19617203968232   -0.71753416537557    1.18048324654676
N           0.35742890291256   -0.99494210671405   -2.74533022054812
H          -0.30719692696219   -0.25311738357679   -2.54814949237627
H          -0.15789588323381   -1.86537101449724   -2.78425890501599
H           0.75306613336859   -0.82546244267276   -3.66139663826304
