    23
        -45.37152247  Gyration_radius:  2.43862872986 Dipole_moment: 4.149
 S           0.31565526441638   -0.86956988096076    0.77889995604955
O          -0.34727955275628    0.38590657187526    1.15028267552013
O           1.32401908530232   -0.65822935836289   -0.23870258008027
O           1.05360949075640   -1.41559857622647    2.04343585760443
O          -0.68902095280359   -1.86006180531034    0.37940412747247
O           0.90776109236380    2.86027920024377   -1.76781968673273
H           1.63444786317509    3.29808643414816   -2.21333149444302
O           0.19034524348100    0.39797802423694   -2.43935187406725
H          -1.09990053521324    0.28657618605943   -1.70748582325135
H           0.45243498921970    1.34570799821810   -2.33320121133989
H           0.74873504072791   -0.09079030160523   -1.79995458694612
O           1.81739941678356    1.87826070563427    0.52705654093594
H           1.01279867620148    1.70709205742286    1.03932106521655
H           2.05110790601311    0.99209585541700    0.20621063109556
H           1.24837914024262    2.60832401359257   -0.87280450677396
O          -1.06282505367609   -2.82407910997710    2.79516902970906
H           0.37433319202191   -1.86551634543368    2.58986410275214
H          -1.16074134479294   -2.58600626447927    1.84984539715954
H          -0.88781758429077   -3.76746286727877    2.82206257817806
N          -1.85304985656773    0.10965832168099   -0.92327316142029
H          -1.79908291699241   -0.89848230859761   -0.69130964441155
H          -2.78794354102717    0.43235474498360   -1.14817360392292
H          -1.44336508252785    0.53347671471170   -0.04614380833381
