    23
        -45.36936450  Gyration_radius:  2.46343761735 Dipole_moment: 3.951
 S           0.53928555735467    1.14168394608485   -0.28486588235584
O           1.18545009360831    1.62125983208491    0.92347213700372
O           0.98281910449122   -0.17761109037550   -0.68287197399565
O          -0.93199241506426    1.18577413761868   -0.19932688560621
O           0.88275327783230    2.14234036722546   -1.44830516666569
O          -0.75383218387969   -2.56111433407764    1.68095726262410
H          -0.11274178303063   -2.98773224332724    2.25139693719744
O          -0.61368220302064    0.06080410471832    2.22082398235192
H          -1.06502834990132    0.51570680275417    1.49361434837483
H          -0.73707379531376   -1.60651510137602    1.92321218580310
H           0.26298537151981    0.46887822261765    2.20332586174072
O           3.23666453073075    2.65438899650140   -0.33501924558060
H           3.37474462576110    3.55687596961609   -0.03851986832809
H           2.66638083337569    2.22816648055375    0.33886057002494
H           1.82252341266135    2.37370250307076   -1.30692916720253
O          -0.27585732442619   -2.44903587411467   -0.92924427759112
H           0.39077761688551   -1.72343700523342   -0.90718001128064
H          -0.43658424794986   -2.65656958165485    0.02221930571002
H          -1.37815302793016   -1.58804652477939   -1.25756189923451
N          -2.11991768988187   -0.75876920246307   -1.40389847208139
H          -2.99590694759583   -0.96485015705508   -0.93457149718085
H          -2.27499253835019   -0.57341945048797   -2.38894732029950
H          -1.64862191794103    0.09751920214607   -0.94064092360367
