    23
        -45.36936439  Gyration_radius:  2.46341262682 Dipole_moment: 3.952
 S          -0.78693950593111    0.95597191193073    0.37703452232623
O          -0.73864976254929    0.76917393991672   -1.08466189008900
O           0.46102044587223    0.53956221413888    0.98103352262745
O          -0.91972244491308    2.51247543982694    0.55733129968063
O          -1.95041972209497    0.33429934148844    0.98320394658298
O           1.10040944265723   -2.93359366411936   -0.36822088720233
H           1.03974481577746   -3.57871548066511    0.33784964513201
O          -2.20795735708550    2.15334665483124    2.84957988064758
H          -3.11654521116238    2.46202809982538    2.87479079202107
H          -2.21939029860738    1.30603423308402    2.35670326180167
H          -1.27412224510311    2.62785323142888    1.46162287057396
O           2.53023924112150   -0.73048524017928    0.02726386444256
H           1.87881809112369   -0.25356712324883    0.59259372533237
H           2.14030507826747   -1.63062933616036   -0.08161162298507
H           2.14275050654550   -0.06674513525364   -1.18670771923167
O          -1.32184691039485   -1.80232973986292   -0.56351105314634
H          -1.20707257719715   -0.99591292773191   -1.08884062319652
H           0.19422551549040   -2.56182459402000   -0.47223748865717
H          -1.71579305820485   -1.46033967190905    0.25088230853614
N           1.63833393984430    0.46805044510129   -2.03452164526376
H           0.63644462610459    0.64936952550873   -1.66920426427540
H           1.60156628228460   -0.11523445934804   -2.86433180748820
H           2.09460109909605    1.35121234986912   -2.23604064632692
