    23
        -45.37152243  Gyration_radius:  2.43825640406 Dipole_moment: 4.155
 S           0.59305055642611    0.79632477310536   -0.68880577141630
O           0.03094536632340    1.41302649755947    0.49471363639630
O           1.94579844064795    0.27669430100843   -0.46476427093278
O          -0.27000746908721   -0.27426035126433   -1.20090007935157
O           0.67983817667379    1.90856071488660   -1.78306111719743
O          -2.84886788072305   -0.76646799132025    1.84754087993396
H          -3.52837123012433   -0.39644529660877    2.41285012317803
O          -0.28251704017008   -0.43612279274257    2.42538101431451
H          -0.12722719120220    0.38303805380799    1.91134386191778
H          -1.25440626278944   -0.60298816227551    2.34993500609282
H           0.33257368818212   -1.39492324557128    1.46849742880206
O          -2.51120040533057    0.87198365945768   -0.21663976110474
H          -2.04409718182465    0.32737368116597   -0.86785377487951
H          -2.82850674718230   -0.19716126064025    1.03753074123391
H          -1.79341005130462    1.40729007167502    0.15909407284757
O           2.81534676338051    0.79318720870182   -2.89007558865862
H           1.34326422449547    1.60398499577098   -2.43831182105532
H           3.58576360385660    1.36520895018521   -2.86657045142438
H           2.70547061602947    0.43716650045898   -1.98391521744564
N           0.76848231820772   -1.84264529847879    0.56136814882236
H           0.15196852695963   -1.51525760482239   -0.23192579134973
H           0.90150601043209   -2.84733393350480    0.60239985854417
H           1.63460316811150   -1.31023348049804    0.36216886273443
