    23
        -45.37152254  Gyration_radius:  2.43851834537 Dipole_moment: 4.152
 S           0.68265840205679   -0.89043393863167   -0.45085216344250
O          -0.38744628835240   -1.87410440117750   -0.64440933856032
O           1.98939375930391   -1.47061247207162   -1.08160847823188
O           0.35013607560366    0.34945348080705   -1.16173793363212
O           0.96431709825866   -0.64282795245917    0.94791094524901
O          -0.18587388723169    2.91621890200088    1.89156862530738
H           0.17768112587745    3.37405690580914    2.65073348596646
O          -1.18266915050483    0.47082599377074    2.12855108974495
H          -0.36995380603233   -0.03358280294880    1.91740371265068
H          -0.89461056384577    1.41642225143126    2.15742344965304
H          -1.85557084610335    0.33086409526302    0.80920053078564
O           1.83004731747684    1.87129308295257    0.51197949430123
H           1.44260752317671    1.68467481041797   -0.35624698740269
H           0.59029410607418    2.63888730379175    1.34276833236384
H           1.83316960115470    0.99493883391152    0.93030513185281
O           0.62240475968540   -2.91287108192792   -2.83680231084458
H           1.71968053405250   -1.94051803596710   -1.89936803949470
H           0.77085351558121   -3.85581284809654   -2.73592824295045
H           0.02213691687974   -2.64641474243162   -2.10976174081782
N          -2.05272239639553    0.12732057788472   -0.25528974433825
H          -1.89117759223800   -0.88685595487637   -0.39150623027870
H          -1.22252744044162    0.52780984933144   -0.77196078841478
H          -2.95282875404001    0.45126816322530   -0.59237279945896
