    23
        -45.36936467  Gyration_radius:  2.46348161758 Dipole_moment: 3.953
 S          -0.19244741946126    1.26465406943194    0.20071246079262
O          -1.33773107395884    1.65709198047255   -0.60042208953658
O           0.99840321079438    0.96739148610647   -0.61644860790060
O           0.24077052447198    2.50331072292561    1.06733405915168
O          -0.47545821371521    0.16572057856587    1.09948863363101
O          -0.50974259100524   -2.91926623867955   -1.08141296334624
H          -1.39216031334894   -3.29078534289548   -1.12148599186681
O           0.50070014961258   -2.24641733831573    1.28076459295194
H          -0.00191304953938   -1.40730446021211    1.40166223544913
H           0.10454685062883   -2.64906592220404    0.47137133580645
H           1.68143914092769   -1.60618177626974    0.77047769433832
O          -2.28082959331551    3.32084712437474    1.18854065929060
H          -0.60053852694116    2.90822890040816    1.35891981560699
H          -2.46862433717661    4.16590758468568    0.77375263317006
H          -2.20600597867833    2.66840296327140    0.46070604183229
O          -0.67567563646277   -0.46770509461442   -2.15237754977644
H          -0.56592458248746   -2.04205271785512   -1.52595463491707
H          -1.36459973337010    0.11862446382882   -1.81080149862184
H           0.13475851788441   -0.00117494138638   -1.89692437690788
N           2.45896408384134   -0.94916181404161    0.29814490294159
H           1.89533607948006   -0.10477656940252   -0.07513468702670
H           2.91846127014202   -1.42361166931446   -0.47249916833911
H           3.13827121174507   -0.63267599878851    0.98158650336862
