    23
        -45.37152231  Gyration_radius:  2.43844435008 Dipole_moment: 4.154
 S          -1.06585460540210   -0.53663929779760    0.19028943904179
O          -2.09185036558002   -1.34826068038583    1.04494917519649
O           0.23678297762815   -1.20393894236585    0.29444879916351
O          -1.52262653990626   -0.55754996596186   -1.20309147715905
O          -1.02403818617435    0.80166760574560    0.74187967293649
O           2.64335540826167    1.86564659888702    1.28769998978421
H           2.86979369371393    2.55921257423309    1.90887512918901
O           0.80251274135618    2.27442979944182   -0.57654430403779
H           1.01165743697558    1.07212984215298   -1.42786971112880
H           0.02383322405129    1.95064956362197   -0.07818461303834
H           1.54807798653773    2.24892318353644    0.07263912331509
O          -2.76750725918794   -2.86481225157515   -1.02221883926025
H          -2.31885265083761   -2.05929907368913   -1.35351414273925
H          -2.37065437947690   -2.11147848892330    0.49532938029139
H          -3.69385826467899   -2.77737651450184   -1.25799481629931
O           0.94413506366146    0.21085197116252    2.48569549316593
H           2.10517546232196    1.20879476903409    1.79696712719249
H           0.12145362059001    0.63592099586902    2.19340707782006
H           0.97249739112041   -0.58593807483009    1.93505481349778
N           0.95736997585944    0.05153890135897   -1.83854437844466
H           1.01684697575459   -0.58775678864692   -0.99958958142837
H           1.63074315086784   -0.15120453477372   -2.56943834935716
H          -0.02899283745350   -0.09551120159162   -2.12024501770001
