    23
        -45.37152219  Gyration_radius:  2.43856400526 Dipole_moment: 4.154
 S          -0.06869917385488   -0.11171978780578    1.20275443054147
O           0.45456885615705   -1.47831562364779    1.29919316570287
O          -0.22666791623320    0.44610850123887    2.65394089738767
O           0.89504603334435    0.73857665848095    0.49465163263268
O          -1.37806265676467   -0.05936882859582    0.58643895028471
O          -1.11270148435553    1.59397283842524   -2.89089910847647
H          -1.87787233753607    1.99120311986118   -3.30910237635344
O          -1.21619016488783   -0.88993347786579   -1.96889622511271
H          -1.49444220864314   -0.68802526877077   -1.05168908409628
H          -1.23326168932696   -0.01898811894822   -2.43710906721199
H           0.22549955507075   -1.13470431525678   -1.69363966559030
O           1.72932635491470   -1.09480265192447    3.56519069489277
H           1.41997715486979   -1.45007100392574    2.70620799505273
H           0.54087610488174    0.11251627991232    3.16565628822920
H           1.43252910983833   -1.71160275869654    4.23806301490194
O          -1.02237203372198    2.43444903631684   -0.37186343944579
H          -1.52381573167409    1.70466624696704    0.02665269735535
H          -0.11496957991607    2.23735148459244   -0.09494117924141
H          -1.04232424344644    2.01366808835232   -1.99692751461746
N           1.21075361750775   -1.17538395972621   -1.20302269666338
H           1.09505597125506   -1.78063507289201   -0.36993627582960
H           1.32963742913282   -0.23197846294722   -0.74260824196083
H           1.97810904339807   -1.44698292315291   -1.80811490238283
