    23
        -45.36936402  Gyration_radius:  2.46314547719 Dipole_moment: 3.954
 S           0.46664455430255    0.90884105112927    0.79293172778405
O          -0.55108371999291    1.93868558474323    0.90032122862267
O           0.08841781891566   -0.33927222630268    1.48053478858582
O           0.85702242250589    0.63437465751957   -0.57381348920497
O           1.73971255216820    1.40225566821801    1.57316851206753
O          -1.97386772839745   -1.41789825467292   -2.01081564133403
H          -2.42675472187742   -0.91903036998867   -2.69230485317470
O          -2.29126217789183   -0.03946750819866    0.26583621036730
H          -2.14143321889919   -0.93641765198966   -1.16798164636890
H          -1.64387740376924   -0.39342101627732    0.89418155037730
H          -2.06290196650128    0.90031941458468    0.24631676417238
O           1.16289175567970    3.91801679055826    0.95573192442357
H           0.96187389729098    4.49708212823634    1.69447697833616
H           1.80731388430135    2.35440323082005    1.35983580532690
H           0.36044003179483    3.37531192083396    0.80590808337267
O           0.68001249811362   -1.51077603574313   -2.04755137372501
H          -0.29663317038388   -1.53898460450875   -2.18803866881159
H           0.84525632561320   -0.60626728768541   -1.69277409920420
H           0.84037718385682   -2.16642404910720   -0.77931800527629
N           0.89458449641858   -2.48189913378727    0.29626435025443
H           0.24842926949496   -3.24070764310642    0.48808038464987
H           0.59468529105389   -1.59786934533473    0.84274626690132
H           1.84015212584720   -2.74085533174917    0.55626320167166
