    23
        -45.36936430  Gyration_radius:  2.46328638 Dipole_moment: 3.941
 S          -0.66439772947289    0.36988726823904   -1.04877250865114
O          -1.93045176086052    0.07866821234317   -1.93501488552035
O           0.20887351150705   -0.79521749242830   -1.28091362056027
O          -0.07297337749062    1.61375555967442   -1.50772420749927
O          -1.08714772287398    0.41633275733644    0.33497598242293
O           2.10510805358308    0.12225953684791    2.34556149762618
H           2.28389005788034    0.93667207327443    2.81789266286748
O           2.17034938775337    0.73435514781797   -0.26303741660992
H           2.18549622048917    0.34229063058559    1.38878672188336
H           1.76092613301476   -0.01022306829688   -0.72951388715196
H           1.62868400493149    1.48042422571285   -0.55525334750392
O          -0.33501490275720   -0.92235880586614    2.44403564865252
H           0.56578827177007   -0.54099497322357    2.57495574147899
H          -0.76670977791289   -0.30641576201511    1.80730355125941
H          -0.10383680211637   -1.95470231887085    1.47129020372357
O          -2.36075213703308    2.68381510728337   -2.20048067820038
H          -2.29577434249087    3.03370490181159   -3.09197815202883
H          -2.35688997995013    0.95110537392776   -2.05180442977551
H          -1.44048885374698    2.55624247550283   -1.88769934073785
N           0.08477107050194   -2.58943341630030    0.56545307335668
H           0.11226960461536   -1.87939514565846   -0.25001166815706
H          -0.66856887629045   -3.25222854708894    0.41735273464257
H           0.97684994693775   -3.06854375065940    0.63459631420164
