    23
        -45.37152247  Gyration_radius:  2.43836241747 Dipole_moment: 4.155
 S          -1.03782910479757   -0.52084629614571    0.33454294297531
O          -0.23175642644404   -0.13301182465499    1.47337130278530
O          -2.52814024414777   -0.49765705899388    0.80407606179633
O          -0.89875966983730    0.43050651465451   -0.77392398225044
O          -0.73365657787123   -1.87618854213128   -0.13547340937590
O           2.26957743715117    2.60670805120542    0.41978587882635
H           2.66085209842024    3.19679120028070    1.06549666512076
O          -3.19184730914497   -2.44125328073925   -0.87268247098289
H          -3.02714907551352   -1.06249658145666    0.17618791413892
H          -2.21867531239495   -2.43907481854561   -0.75948472062349
H          -3.51693320814158   -3.22388772042904   -0.42197588620518
O           2.36066456646269   -0.02131484761976    0.75872758445548
H           1.90828770115670   -0.48005333931625   -0.58241731079678
H           2.47159423424906    0.95643071165226    0.65983673362281
H           1.50962135914067   -0.13119829591134    1.23112773506863
O          -0.34465554185868    2.49373409387242    0.88192532066153
H          -0.33892597790849    1.71945469390682    1.46791533629950
H           1.28992019617979    2.67573066201686    0.54579055640891
H          -0.70798315354159    2.12925928983089    0.06094838303736
N           1.27793273792673   -0.78234342441891   -1.43360181034375
H           0.76557037041522   -1.62962992509410   -1.12855243366021
H           1.77139460870853   -0.89188847446553   -2.31294462589246
H           0.49089627178988   -0.07777077750333   -1.45867575505791
