    23
        -45.36936436  Gyration_radius:  2.46337691397 Dipole_moment: 3.951
 S           0.53910620981371   -0.18112571428372   -1.16311680608836
O           1.43291914552539    0.47427419357118   -0.19076112580277
O           1.49957096842818   -1.09968063140106   -2.00360612825689
O          -0.41212325997928   -1.03259486334390   -0.48065599724488
O          -0.08740810836882    0.76169138483119   -2.07213983154564
O          -1.95549261153114    1.15351073680731    2.18975330385429
H          -2.88152699727661    1.30688942781883    1.99648471993234
O          -1.00719551877579   -1.32308528978643    2.04248194077327
H          -1.46963223022149   -0.46668168686078    2.20643647616152
H          -0.95396716748463   -1.38278887779255    1.06015775032531
H           0.37623979979938   -0.97595449985290    2.21597775836601
O          -0.57587281550714    2.22580981635107    0.15710494588555
H          -1.45247855129915    1.59801179777404    1.46890520684310
H           0.32247171114068    1.86633589398391    0.21410784683362
H          -0.84051816901288    1.97140094352886   -0.73768577793496
O          -0.11284660294512   -0.89375820726711   -4.10113617862224
H          -0.34105098175828   -0.17993050495769   -3.46917451638115
H           0.25573113897225   -0.46057855560503   -4.87439678517195
H           1.00899442152825   -1.28032653689677   -2.83031191166243
N           1.43619115021507   -0.61439573848284    2.14538374951584
H           1.49654499854381   -0.17470120775897    1.15891452350124
H           2.09318020730776   -1.38364952280476    2.21843567266162
H           1.62916328338756    0.09132763248023    2.84884116368484
