    23
        -45.36936449  Gyration_radius:  2.46341620034 Dipole_moment: 3.953
 S          -0.19287452521096   -0.59477000751166   -1.13308147349648
O          -0.18580949817058   -0.41071026654582   -2.69479397131404
O           1.22795483413164   -0.48482534604061   -0.75468803533518
O          -0.95465317357042    0.49307194869020   -0.55699580955885
O          -0.75155825805688   -1.90201902376771   -0.83886461963522
O          -0.06443901636459    0.48721928940025    3.11607087779983
H          -0.82798730392943    0.24425292619840    3.64180512456460
O          -0.34691516606131    2.31409581926912    1.20910882799346
H          -0.30210915126971    1.75358185238622    2.02030887895504
H           0.96427710165117    2.15900755798507    0.64242783672068
H          -0.79193875873688    1.73858415344284    0.54422799888114
O          -2.37100922661727   -1.90284556512524   -2.89701166149232
H          -1.03401921544305   -0.79547991382312   -2.99344158164001
H          -2.27476981625646   -2.72603652053695   -3.38132221342079
H          -1.97687132967247   -2.05693024007273   -2.01275912670635
O           0.48135619597435   -1.62663149695118    1.56098203671132
H           1.07900894946774   -1.30966921880384    0.86676050811465
H           0.16477536701965   -0.31214927108319    2.58809025422867
H          -0.24955332334451   -1.99664541862044    1.04702237109022
N           1.91000167287579    1.83752632321015    0.13102620213539
H           2.66976227096952    1.73809754173031    0.79662529350842
H           2.16405642840665    2.48082575399309   -0.61085830278972
H           1.66331494196610    0.87244912255780   -0.29063941517028
