    23
        -45.36936434  Gyration_radius:  2.46324660017 Dipole_moment: 3.945
 S          -0.66914535568413   -0.41494779453385    1.02829655802745
O          -1.36044332343179   -1.66252143259833    1.69063203902851
O           0.76976835550749   -0.73056534763290    1.08947524512995
O          -1.11098035171977   -0.33598535381121   -0.34801822102247
O          -1.01924565165176    0.75791751040150    1.80887358269998
O           1.32887912004243    2.01719781108861   -2.02817918454063
H           0.88865678752984    2.82719109252333   -2.28977789142500
O           1.15105888037643    1.89209314732869    0.64312670648765
H           1.36979225607025    0.98037552476653    0.88937211871081
H           1.30896691239983    2.00545773443582   -1.04339400335492
H           0.27321774688076    2.00329238793708    1.03357822283675
O          -3.38775892980284   -0.13997553277453    2.47485488231350
H          -2.24819723573872   -1.34456789081549    1.95019337627767
H          -3.50898714984867   -0.05492996470680    3.42327705443183
H          -2.63797567961575    0.44633536102611    2.24031900814289
O           0.19355779602218   -0.31294696864487   -2.60676000656400
H           0.60449315192645    0.58303251299062   -2.55615206431941
H           1.11645356291083   -1.12736012664540   -1.86602741562366
H          -0.49256354659762   -0.30299098900432   -1.89927069050396
N           1.73986754509916   -1.66943413315214   -1.10635547203358
H           1.34590708265773   -1.33208712177539   -0.15727691215621
H           2.71809838877130   -1.41040096198466   -1.18430889987998
H           1.62657964782583   -2.67417946434001   -1.18647803270236
