    23
        -45.37152247  Gyration_radius:  2.43820207949 Dipole_moment: 4.156
 S           0.67688776416731    0.08593575543873    0.99829335916540
O           1.45608181455733   -0.32260303574500   -0.15195157774848
O           1.39068828510023   -0.49598736442740    2.26080455445811
O           0.61415130025479    1.54350857328988    1.14728131840889
O          -0.68179482933534   -0.46620901482711    0.95317839753279
O          -0.87936003387137   -1.83173169501701   -2.82629240332588
H          -0.54754414114985   -2.42512356875963   -3.50164823434703
O           0.09000661979706   -2.62217128889485   -0.48211191589625
H          -0.59546525175473   -2.21846066570189   -1.96011119931784
H           0.88028700051616   -2.05799255528264   -0.47150635288228
H          -0.48510565842155   -2.18460231966532    0.16342124763383
O           0.25964981742038    0.52563334429718   -2.40904080390060
H          -0.16597854062360   -0.31579555158919   -2.70725618478534
H          -0.75197146362313    1.15587757157719   -1.51863928376385
H           0.89629925418798    0.25366438596096   -1.71608684773891
O           0.57759872849694    1.52334228084611    3.77467532262272
H           0.49645297393387    1.78052068766765    2.83279060418323
H           1.08284342229661    0.03620153825212    3.02516738291574
H           1.30685317237264    2.03315523197734    4.13459798435863
N          -1.32482894733513    1.46425272012178   -0.62977224007635
H          -2.19979426454471    1.93730574890903   -0.82828006209344
H          -0.67233082638764    2.01261979478275   -0.04039134696823
H          -1.42362621607128    0.58865941679329   -0.04712173843806
