    23
        -45.36936391  Gyration_radius:  2.46296300164 Dipole_moment: 3.955
 S           0.09242267952163   -1.23629510278023   -0.36761924761050
O          -0.20462326544601   -1.06615312444662    1.06638657483522
O          -0.71936243379292   -2.52011404576480   -0.77458311287433
O          -0.42635307569866   -0.11850211665717   -1.12727034313264
O           1.49802669045621   -1.49633487380473   -0.62194095099933
O           0.89924553989319    2.95766472903075    0.62389238660402
H           1.52270300088369    3.41372738441467    0.05670306633361
O          -1.42413111601552    2.17916929755123   -0.39985816886935
H          -1.08942177518659    1.39766168791002   -0.89840997583056
H          -1.85947940397304    1.41652582068968    0.73708555985737
H          -0.60601467435335    2.62113879428124   -0.06864265748219
O           1.95126757726088    0.54023222806620    1.10655458323889
H           1.23414668125733   -0.00558575990131    1.46290934796329
H           2.23737604424119    0.02464056572887    0.33962886741618
H           1.31692420208991    2.09295629487138    0.84327555235674
O           1.05046231111069   -3.05532284948649   -2.67815490098049
H          -0.29379094531122   -2.83137202112580   -1.59840023305052
H           1.45356581549912   -2.41115995249360   -2.05886645181548
H           1.54440353128607   -3.87200393794921   -2.57573549819167
N          -2.03497673462643    0.67871866177398    1.56431876167416
H          -2.97025425831802    0.28912412081606    1.51720452292787
H          -1.86630702368632    1.09990279692316    2.47220350012583
H          -1.30582935731239   -0.09861858791613    1.37931884765576
