    23
        -45.36936418  Gyration_radius:  2.46323941578 Dipole_moment: 3.951
 S          -1.15256714497566    0.24731231919570    0.53346001905004
O          -1.14440714971873   -0.35159171080365    1.85595702546964
O          -0.27800453819956    1.43054589161006    0.43901814222838
O          -0.84266882926346   -0.69541062639406   -0.52056762817332
O          -2.59387203678439    0.81758393806715    0.26839316793293
O           2.89608126839437   -1.20946286840908   -0.31819826446796
H           3.08845363008910   -2.10777143755299   -0.04531158871393
O           1.11118511042265   -0.81484858514048   -2.24466900737185
H           0.30216270037758   -0.97410663762006   -1.70477931641814
H           1.05417404836798    0.61573875714704   -2.12484629967098
H           1.85393403452913   -1.05629183911534   -1.64107214780119
O           1.54865262196501   -0.08136155537485    1.70578103515493
H           1.13976142321735    0.72237311731618    1.35073580024464
H           0.78382868861240   -0.56421422597194    2.04857019161617
H           2.45110311516970   -0.78359174305613    0.45047787941259
O          -3.64834345077340   -1.11202854746142    1.75390639759668
H          -3.19876380738833    0.14446258696181    0.63955420198673
H          -2.68973437139715   -1.06280429762394    1.95304786525378
H          -4.10332289921710   -0.82909843039504    2.55040471104271
N           0.90681422478584    1.68979133365569   -1.83517988438365
H           0.37789490639557    1.63560438543991   -0.89313618484374
H           0.34027740213937    2.18071795643441   -2.51840278939154
H           1.79736104355059    2.15845221832591   -1.70314332544083
