    23
        -45.36936433  Gyration_radius:  2.46330516547 Dipole_moment: 3.951
 S          -1.17110124234988    0.14496887830315    0.53063954948081
O           0.05232068690194    0.84103781300374    0.86873114010911
O          -1.41029983826943   -1.02410243436071    1.35751902076757
O          -2.37088383141732    1.13998308437544    0.73913484400664
O          -1.20768595123090   -0.16051062787675   -0.91129801168095
O           2.82564915324038   -1.27216454696378   -0.59098934165274
H           3.35475085367074   -1.65365600971377    0.11109970026100
O          -2.64863219540977    0.30615600458419    3.24314753004559
H          -2.56524761071870    1.09655279943242    1.69675286455157
H          -3.47820918154344   -0.12920903584965    3.45218759761793
H          -2.10681031263529   -0.35280577442499    2.76026611305220
O           2.23022789963417    1.31406141051843   -0.48678060209549
H           1.52582160356587    1.25645865120168    0.20012541201098
H           2.61072648806575    0.40385358212434   -0.51751895071584
H           1.31572376830811    1.31517817222911   -1.59482184218047
O           0.35199873649609   -2.26008632463981   -0.29077943413673
H          -0.23298918442920   -1.70401605549086   -0.82739546931257
H           1.93348377073839   -1.68147617796510   -0.50908906297426
H          -0.04775169991857   -2.18836191230153    0.58702914685555
N           0.46845435860307    1.19790662661050   -2.32127275996774
H          -0.28254969066846    0.65730261524535   -1.76102087445218
H           0.75250134903335    0.65379548774360   -3.12958784372585
H           0.10050205025029    2.09913378434209   -2.60607871573362
