    23
        -45.37152253  Gyration_radius:  2.43832267932 Dipole_moment: 4.154
 S           0.98433019839736    0.25654967311161   -0.65440932959679
O           1.52450928865196   -1.10439517765655   -0.73147436610059
O           1.85314383390062    1.17198903202879   -1.57589775031054
O          -0.39023746961840    0.27349814500235   -1.16801106587164
O           1.05997235509529    0.81066631650877    0.68138788730469
O          -2.49060761526348    1.11996758225812    2.15807919559453
H          -2.68401771851998    1.72824350489893    2.87281028703457
O          -0.49627495037595   -0.61661626477789    2.35029836121486
H           0.20617950182717   -0.07026714933109    1.94097418954442
H          -1.28052841468765   -0.01742864421031    2.41250830185105
H          -0.78729020031230   -1.48399962258909    1.17711269037556
O          -1.07188569127511    2.42000979879013    0.32607044635830
H          -2.06382278559908    1.66125871029957    1.44720679089356
H          -0.18883270083146    2.18214955036228    0.65265767750110
H          -1.15587723502555    1.86657607791344   -0.46481482609988
O           2.48100392547924   -0.85448892767340   -3.16615506105510
H           2.15041314224578   -1.21019298283118   -2.31520941840270
H           2.07696222487769    0.63793333023782   -2.36773998588124
H           3.42450488887445   -1.02970183044747   -3.18653040538898
N          -0.82495864074290   -1.89490238982290    0.15578115838657
H          -1.00711431622004   -1.06311481791476   -0.47018654871716
H          -1.47233580050868   -2.66533753578009    0.02891873450726
H           0.15276415964762   -2.11839637836317   -0.10337697313729
