    23
        -45.37152239  Gyration_radius:  2.43873408645 Dipole_moment: 4.157
 S          -1.04529090651123    0.58932444970798   -0.15016168290116
O          -0.92880710338926   -0.81297888125423    0.26538664106041
O          -1.00649879791290    0.67690602228243   -1.61366745597378
O          -2.43650858703937    1.11827167456064    0.32601381455247
O          -0.04029228312247    1.41755747442386    0.48324893756223
O           2.65695189461926   -0.82338624517170    2.09567026850214
H           3.21677311336458   -0.50160775222351    2.80371589270325
O          -3.59898164713190    0.40848193904471   -1.94885677381660
H          -2.62926161505702    0.43960476141850   -2.08495249046166
H          -3.09369901423278    0.80639227180297   -0.33214106420046
H          -3.96546838945121    1.15600346627585   -2.42658737817564
O           0.14567164180530   -0.16192077258686    2.65869582290472
H           1.72540362120480   -0.66257599200244    2.39001760213602
H           0.12246991931488    0.68173779670932    2.17837463337767
H          -0.37898060359506   -0.74065254655203    2.08541652569595
O           2.41559856505980    0.53098819648121   -0.17137274393640
H           1.63238495405951    1.06826684837139    0.06816427535979
H           2.65130849814955    0.04244989328355    0.65539855003191
H           1.71810342041748   -0.47974041579095   -1.01228645559789
N           0.93743323655613   -1.09122402235627   -1.49126012432632
H           0.35461610776386   -0.43598309633093   -2.04376247062035
H           0.26577776298798   -1.34039005669257   -0.71503552062894
H           1.28129621215903   -1.88552499342213   -2.02001879326968
