    23
        -45.35981402  Gyration_radius:  2.32637636643 Dipole_moment: 5.645
 S          -1.04038188831610    1.82694625310453   -0.41939877677315
O           0.25114997430379    1.43042927299036   -1.19391735917713
O          -0.46926556074705    2.26876471793718    0.95907162883061
O          -1.66937444606256    2.89690685789409   -1.09501887231891
O          -1.82207899144042    0.63133000080864   -0.20399967183064
O           0.58524257095440   -1.39387649526040    1.68020123210204
H           0.93419476857199   -2.20868563449958    2.04301174042333
O          -1.33376786502655    0.37605399412254    2.42249309612638
H          -0.64212410449851   -0.31216050985470    2.35620262778885
H          -0.80137283817612    1.59872641000205    1.64588690408104
H          -1.97486128837251    0.16451754790434    1.72874041817931
O           1.88814134253217    0.68890821560382    0.63939534423009
H           1.78042392175256    1.40498541988555    1.27164316116626
H           1.50957804577229   -0.11748636092017    1.05758958136238
H           0.93807701549623    1.11321058084261   -0.52650481486910
O          -0.74045402330277   -1.83195657407665   -0.46621955245732
H          -1.29231676695916   -1.02928828383267   -0.46650045953770
H          -0.14898757288784   -1.73239056008636   -1.24915884078359
H           0.07252227636699   -1.64774350722611    0.84222114784210
N           0.86001822700606   -1.17246555459486   -2.56480862861472
H           0.68701787320606   -0.17565207724305   -2.47844771118359
H           0.56941456775485   -1.46134348650668   -3.49031794553826
H           1.85920476207086   -1.31773021699194   -2.49216420904946
