    23
        -45.36936444  Gyration_radius:  2.46333341521 Dipole_moment: 3.952
 S           0.09337112458135   -0.07265952851841    1.28860519363963
O           1.37232874447056    0.22443343054169    0.61786298842247
O          -0.54432801169739    1.11377814337088    1.83018068647159
O          -0.77147753344612   -0.83457748987156    0.41272909604844
O           0.50169956318598   -0.99672170950577    2.49376079610285
O          -0.85156895042227    1.10177222309402   -2.83129971149993
H          -1.72911029117330    1.45620894729553   -2.98195064373471
O           0.03846787628424    2.23319451963129   -0.57006477087155
H          -0.50837633808093    1.56254338017540   -2.03129317316356
H          -0.54214918713430    2.19239493431920    0.20235181243688
H           0.80001235897362    1.70797501255001   -0.28094918040896
O          -0.60385581673844   -1.44443863401855   -2.11785611764171
H           0.80546919885956   -1.39965977778787   -1.84261193654876
H          -0.87426764718995   -1.34069989334447   -1.17577227345982
H          -0.77750692760042   -0.55828374683841   -2.51637034146559
O          -1.58534431006265   -0.13103457692683    3.88568257780129
H          -1.43229607528737    0.49279310017564    3.14512017446670
H          -0.24879988854819   -0.93579754192262    3.11806343364669
H          -1.38301757473108    0.35201746409283    4.69014277468057
N           1.84475350708302   -1.23791899423057   -1.45127679013254
H           2.29038924235740   -2.11802034864498   -1.21555936045645
H           1.69748914608541   -0.65120293108106   -0.55455101822752
H           2.40811779044905   -0.71609598265476   -2.11494422611895
