    23
        -45.36936414  Gyration_radius:  2.463138554 Dipole_moment: 3.952
 S          -0.35543216064560    0.14876682571705   -1.23482124698960
O          -1.23429645511979   -0.44164709210329   -2.39759214153450
O          -1.18370374053128    0.24487252108659   -0.05143242754957
O           0.70350972367079   -0.85866146923545   -1.04130461332284
O           0.16439383669256    1.43128227303519   -1.67372483454196
O           1.23812646681051    0.71602555178128    2.81157368350172
H           1.13292245633868    1.59031555497269    3.18974493094692
O          -1.92605001661690    2.01009290921860   -3.14123728802975
H          -1.72259605093968    0.32734136027414   -2.75385956715196
H          -1.13849815151946    2.07780115873311   -2.56141548723246
H          -1.63960449272954    2.28075635582895   -4.01653372117115
O          -0.93073159471732   -0.74506319154966    2.34864870260460
H          -1.23031178975630   -0.27599919786605    1.53525866572640
H          -0.26780422636042   -1.80302807022955    1.63768713234343
H          -0.17884884912849   -0.19717076176689    2.67851248301242
O           2.01756240277288    1.08367494147713    0.27350282724384
H           1.48783476898136    1.68650492262059   -0.26658365673072
H           1.57806688157473    0.85667959727623    1.89786138059784
H           1.88793764067853    0.23679412268738   -0.17963348466714
N           0.27668989461851   -2.47370725747521    0.92147846721407
H           1.16330473128678   -2.77989496044211    1.30906538886960
H           0.45127898280860   -1.84619390711221    0.05782591306902
H          -0.29375024752599   -3.26954218712251    0.65697889383845
