    23
        -45.36936461  Gyration_radius:  2.46350400934 Dipole_moment: 3.951
 S          -0.02947717304334   -0.56898467480388    1.16239847174208
O           1.32244927730796   -0.16704908810252    0.73246042007725
O          -0.02697385790401   -0.31299779961155    2.71397015385950
O          -1.02667102563080    0.29531748179483    0.56720706775171
O          -0.29121268154701   -1.97977773231337    0.94162360711995
O          -0.24390270225039    0.31465226064580   -3.12989968632232
H          -0.94610975269154   -0.11465251721917   -3.62076205468700
O          -0.87913092028620    2.12130493551286   -1.28984194054483
H           0.44693554085819    2.28500760883063   -0.76189917286859
H          -0.73061145244983    1.54711642397298   -2.07882239637591
H          -1.16986780111414    1.49356070503658   -0.58787065243929
O          -1.82139849048485   -2.23869898918296    3.05116114059198
H          -0.76135148171003   -0.86064752386932    3.05673455254873
H          -1.42388910816060   -2.34425392479433    2.16132961169767
H          -1.53325838052349   -2.99604445842598    3.56576838323141
O           0.79133012559883   -1.55197671743042   -1.50866531001077
H           1.31889645498440   -1.07911429901361   -0.84707777007904
H           0.17276028935110   -2.05072595899722   -0.95745977644086
H           0.16824088816833   -0.38908176567864   -2.57755610088513
N           1.45248606343134    2.20381163874083   -0.27026601744264
H           1.57609783588651    2.92172277688644    0.43548218268619
H           2.19901491418900    2.24219697057485   -0.95680475265898
H           1.43564344803284    1.22931463737859    0.19879001941892
