    23
        -45.37152245  Gyration_radius:  2.43811233843 Dipole_moment: 4.154
 S           0.71376437992799    0.60476583969442    0.76453937830607
O           0.49318673700037    1.94628481876683    0.21510215414915
O          -0.57381737321769   -0.00142777013943    1.12251317031978
O           1.47196308616804   -0.24504111025202   -0.12982379540197
O           1.55536005782185    0.75289893949470    2.07284602004846
O          -0.81278405057338   -3.02318713581860   -1.52054082006101
H          -0.44878049147797   -3.83934922105100   -1.86640257502807
O           0.06771769292553   -0.67680711390782   -2.38494092780762
H          -0.96005588599546    0.22581162478077   -1.80004862838419
H           0.76751822701568   -0.53391196611615   -1.71462243501051
H          -0.27410924397964   -1.58728995441196   -2.20497783437759
O           0.60339740571155    3.18484443409795    2.52995086414408
H           0.44200998594142    2.95254648976392    1.59190738959002
H           1.23126975404242    1.56196586006172    2.52301023515447
H           1.28882233393979    3.85679373620490    2.53030388434827
O           0.36356719647344   -2.51607407942755    0.80708982991923
H          -0.22276418521739   -1.86611127480503    1.22277178725222
H          -0.44114753598149   -2.92379225891228   -0.60808656468888
H           1.08419155407424   -1.95944786793137    0.46989634081750
N          -1.51631378222914    0.87900661982351   -1.10914494767792
H          -2.44988609669981    1.12948960537776   -1.41648459585419
H          -0.90215363352977    1.69154229433210   -0.91994907664488
H          -1.48095612213646    0.38648949034191   -0.17490886313343
