    23
        -45.37152246  Gyration_radius:  2.43846185442 Dipole_moment: 4.152
 S          -0.68483057407009   -0.98147464466890    0.17322058448486
O           0.16064651574155   -0.36043336488358    1.19938366100973
O          -0.91858155279364   -2.47186781109123    0.58041395511366
O          -1.98974651028036   -0.31351905157697    0.13651868213133
O          -0.03037609816651   -0.99556623589217   -1.11853644931610
O           3.04011699717455    1.33762595304534   -1.04451452866958
H           3.75948952830069    1.23293746841763   -1.66886821128742
O           0.53160476044856    1.52318447673718   -1.88314033999454
H           0.29942054415756    0.57243004186545   -1.84269501021688
H          -0.13813065517164    1.94873423131504   -0.62466267141865
H           1.49692195448817    1.55795825655688   -1.67125662823198
O           2.44744027016215   -1.05838409966603   -0.06027128239892
H           2.92148366991498    0.45373810692486   -0.61461123369207
H           1.93631530736319   -0.85989914728749    0.73866978914330
H           1.75312567632387   -1.29175558471639   -0.69775485105863
O          -3.11221897199076   -1.86203795678601    1.93871468598688
H          -1.63227419319788   -2.46813419732837    1.25344973788475
H          -2.90155830845883   -1.12400016728292    1.32982195966260
H          -3.89594905057099   -2.29025838084694    1.58701927684593
N          -0.64372297505168    1.93791413794540    0.35396106277086
H          -0.11957172110210    1.22247205892787    0.92835936616393
H          -1.54337467290012    1.44467544935331    0.20988311349124
H          -0.73622992032156    2.84566046096084    0.79689534158922
