    23
        -45.35981435  Gyration_radius:  2.3261417483 Dipole_moment: 5.668
 S          -1.24747922813127    1.16066112786573   -1.30619622807044
O          -1.69358815036606    2.02169255009115   -2.33395958209141
O          -0.10830356555529    0.25717032570726   -1.86371372955977
O          -0.77890971294748    1.77596424299542   -0.08598474691553
O          -2.33091168875594    0.11341162210303   -0.91748048856805
O          -0.02460718877370   -1.20498275109272    1.91032356669156
H           0.38131525278944   -1.68150141523014    2.63519739603210
O          -2.25248066856607    0.31697946763858    1.61709507424028
H          -2.42432187315436    0.14457584847631    0.09305979349975
H          -1.55138742259949   -0.30966304502897    1.88587140349491
H          -1.80771720281941    1.17012203177137    1.51013971872165
O           1.37759183991143    0.83025939742577    1.24185547438666
H           0.58060974313970   -0.41571498992427    1.70908551739028
H           1.99415662752010    0.58038330649595    0.51366052611099
H           0.68060930257430    1.35582843346992    0.80964427867532
O          -0.39749997665208   -1.96957938767479   -0.61849363940020
H          -0.22982065767971   -1.79473200821753    0.33534438866543
H          -1.34493425455879   -2.10187946128463   -0.71289260631565
H          -0.15634616731358   -0.63767881699702   -1.40046700726804
N           2.76500495443130    0.14764925932795   -0.99629372531223
H           3.52653334623747    0.74681955800310   -1.28867876065008
H           1.98164391344882    0.30736260515519   -1.62218717951428
H           3.06084277782109   -0.81314789107578   -1.11492945424158
