    23
        -45.36936442  Gyration_radius:  2.46333292951 Dipole_moment: 3.952
 S           0.10775903268868   -0.09726904629106   -1.28569492638154
O           0.10922830682805   -1.09675828466669   -2.49984458439136
O           0.50620813711692    1.20825579366109   -1.78011023482974
O          -1.28572862069004   -0.12280478206569   -0.80458389551964
O           1.00127040414355   -0.62013544517510   -0.27382073623714
O           0.15373366424417    1.28615605121023    2.87686206529921
H           0.88817633451057    1.84676416056634    3.13123644453056
O           2.09523901253650    0.25287553973958   -3.62966345195772
H           1.69309064180884    0.82174680774571   -2.93999333308509
H           0.90167868284500   -0.85436891600825   -3.01946009656452
H           1.89584319500195    0.66903323332160   -4.47137779492807
O           0.63643299484802   -1.24469945982643    2.23234220850733
H           1.00209746247881   -1.08042996830652    1.33196038615607
H           0.53146639351676   -0.34186392618420    2.61717517895412
H          -0.68871815446193   -1.54971021268458    1.76840732818396
O          -0.66096964124656    2.15673884003755    0.47603079273431
H           0.01404649248427    2.25718486951050   -0.20936267298496
H          -1.22406233270188    1.45942825226188    0.10709617396341
H          -0.17617200581580    1.64570078884158    2.02124624724616
N          -1.67085818497314   -1.65072702700152    1.23504956486471
H          -1.85054776641001   -2.61433673123066    0.97444784556808
H          -1.54762745450792   -1.04834437736759    0.34508132628105
H          -2.43158658402346   -1.28243614013087    1.79697615453188
