    23
        -45.36936421  Gyration_radius:  2.46315864161 Dipole_moment: 3.951
 S           0.86331057624461    0.43757459164675    0.85853553256131
O          -0.35472763759827   -0.11875317981680    1.47553480057605
O           0.56759998699520    0.96555437029398   -0.45654664913133
O           1.24596979762009    1.64350117342251    1.79255304873896
O           1.97166167829114   -0.50013488373984    0.86156624613232
O          -1.24148022298758   -1.82137949583594   -2.25657269998822
H          -0.70369864893581   -2.14790856956802   -2.97949621702492
O          -1.54696151421769    0.80174617202258   -1.97528595204365
H          -0.66100917939347    0.99328876477911   -1.58831021428305
H          -1.49556542727728   -0.14958948772205   -2.23334654920519
H          -2.22188000351192    0.75296894094238   -0.70776513899337
O           0.14436555363819   -2.30129697860123   -0.01290805416330
H           1.06318862182000   -1.99985001891841    0.01010659772742
H          -0.26386311801839   -1.76446183525584    0.68316092466486
H          -0.75318322574233   -2.05067271086433   -1.43246070357076
O           3.80440308257379    1.34792046842834    1.15273011641222
H           3.32983606572462    0.52824498655143    0.89994276864841
H           2.19090383215911    1.81223826778432    1.60460511848665
H           4.39296435567989    1.10701029875449    1.87175325187807
N          -2.54790805419174    0.64943972430175    0.36096139064444
H          -1.64582346955786    0.35791193234994    0.88198208329789
H          -3.25171848175074   -0.07512685634910    0.45992575425835
H          -2.88638457739638    1.53177430458316    0.72933455433393
