    23
        -45.36936419  Gyration_radius:  2.46327546361 Dipole_moment: 3.953
 S           0.92322265865480    0.37558439825231   -0.82506164286022
O           1.64509005887690    0.04382524320780   -2.18215937109915
O          -0.43526455674089    0.77817756795944   -1.23270338300953
O           0.87515758741243   -0.83635375376288   -0.03482546251647
O           1.65604885487483    1.44970801667651   -0.17933040397326
O          -1.68092888964797   -0.15021516071940    2.66486893939757
H          -1.25412060425403   -0.11799988075018    3.52231775536829
O          -0.62762523622700    1.85025490806242    1.22497957086064
H          -1.33097083156101    0.62008485192957    2.16048975206966
H           0.33734164126711    1.90188731191807    1.18333542655434
H          -0.86250102316063    1.67703253851169    0.30075793057220
O           3.98469028517962    0.70465727471371   -1.11793809008237
H           3.27589006560117    1.07081271617129   -0.54826709325524
H           2.59939427075925    0.09516275989338   -1.97398947830871
H           4.42845797440777    1.45865384449439   -1.51288865291901
O          -1.10843759311144   -2.15884285219882    1.02412058237879
H          -1.36498308125141   -1.53202227690707    1.74209220798018
H          -1.81399673901086   -1.64362096358411   -0.11664253579835
H          -0.22619800211554   -1.83510961542952    0.72709119403278
N          -2.20061549574572   -1.08645031768209   -1.01062706628530
H          -1.46903346071888   -0.30510873672880   -1.16740057285332
H          -3.10844116530414   -0.67445919604615   -0.82032442994488
H          -2.24217672784419   -1.68565867817003   -1.82789515627612
