    23
        -45.37152256  Gyration_radius:  2.43840603933 Dipole_moment: 4.155
 S          -0.13299036282566    1.03063348116786    0.61799548378439
O           0.69253159825461    0.07436980859855    1.32599611387675
O           0.64507443651699    1.89320814794211   -0.27678510527637
O          -1.19969838577486    0.36562534555949   -0.13917800601980
O          -0.80445987696295    1.93871473785987    1.69803962903555
O          -0.02668794140021   -3.48123430320249    0.01542724036868
H           0.17296905945174   -4.25562310769625    0.54329927174612
O           1.81920845886121   -1.63007137234630   -0.42612655653516
H           1.23363708780833   -2.41760427150567   -0.30373897206385
H           1.14614231051574   -0.83054322180519   -1.48484569545933
H           1.61572209447366   -1.04481257234030    0.33249570917336
O          -1.29300258054191   -1.73183432864806    1.56295802421399
H          -1.70601054538692   -1.12308908930269    0.93232332294900
H          -0.59374995551420   -2.90227409101396    0.58440264468263
H          -0.51451324194380   -1.23045256347469    1.85551257510036
O          -0.85966984877069    4.02118972003353    0.05794848803762
H          -0.21853226887282    3.36456367567531   -0.28511859213590
H          -1.07565675630839    2.76269726615922    1.24000587672267
H          -0.34332666429734    4.76223085431837    0.38282684493691
N           0.51939194738964   -0.08891449769776   -2.00502790559204
H           0.43402896267430   -0.22860732093039   -3.00600401008487
H           0.88936838180838    0.84132686887605   -1.73890228404737
H          -0.39977592915247   -0.08949916622798   -1.48350410741019
