    23
        -45.35981435  Gyration_radius:  2.32614057619 Dipole_moment: 5.668
 S          -0.15954131346034   -1.24085573241803   -1.74485470534351
O          -0.43976882021735   -1.70639890243499   -3.04924126914524
O           1.04829618251827   -1.98921041124571   -1.11022036846793
O           0.37406006451546    0.21934297859168   -1.83392693096313
O          -1.24084737862612   -1.26834317021282   -0.78720418435301
O           0.49333735393783   -0.04854682817017    2.20362338357144
H           0.54212142616817    0.32246330131591    3.08524507127167
O          -1.61692525311094    0.73769144558862    0.98550205343113
H          -0.36543317264325    0.30053096543115    1.79083576633400
H          -1.41002622274375    1.54338243046040    0.45548911358855
H          -1.68744228916893    0.01960962173807    0.33113494950208
O           2.06253242012375    0.39653949828926    0.09225671080571
H           1.56014304865541    0.28990733666806    0.93174633333705
H           2.56151001442814   -0.41497131455758   -0.03627735794476
H           1.03823631196745    0.36146346526011   -1.08804204717151
O           0.08012911511289   -2.52786496001518    1.17981332335678
H           0.75283561049030   -2.30297374664171   -0.19090989036489
H           0.28681227730147   -1.73842605061655    1.71880804969562
H          -0.80287430809516   -2.36752939388027    0.81689510152703
N          -0.86573479555348    2.71834401533113   -0.72120138911739
H          -0.52478669932219    2.07935732132314   -1.43279110390068
H          -0.09788237790288    3.32423778392870   -0.46038737717173
H          -1.58875118437465    3.29225033626664   -1.13629321247967
