    23
        -45.36936421  Gyration_radius:  2.46319451386 Dipole_moment: 3.951
 S          -1.21068814432691    0.42868904280058    0.15590391041096
O          -1.43193388787761    0.56331101318902    1.58442591419013
O          -2.56964717301771    0.73024319608739   -0.57566765099144
O          -0.28602768375538    1.44681614889213   -0.37530068023233
O          -0.77818564477867   -0.89757666870605   -0.23097438467718
O           2.86072590530276   -1.08080595548150    0.77348002696938
H           2.97413805901900   -1.71682922023558    1.48131446568101
O           1.26007982436255    0.84037129701265    1.73864243686861
H           0.94354327712633    1.34490861871471    0.97405311950308
H           0.43272024233487    0.55757180927379    2.15231002026947
H           2.31838630145258   -0.35060906210707    1.15152529521545
O           1.41377665864310   -1.76959445008212   -1.34431471226953
H           2.04363705477563   -1.64815252442191   -0.59410113482756
H           0.52503207421702   -1.67581672293935   -0.92875401866902
H           1.39493148112653   -0.47113310902117   -1.95901055855832
O          -3.91736871299164   -0.25637331132399    1.48654226733218
H          -3.25084702952652    0.30313346063613   -0.01862330592008
H          -3.00026964013141   -0.07353721399035    1.78065618119652
H          -4.47926671965964    0.36326523302001    1.95744757571453
N           1.24627470254966    0.59798266552959   -2.26589617961040
H           2.12309259845863    1.10883930528664   -2.24854048294723
H           0.57609681106235    0.99422796982130   -1.51488975676551
H           0.81179962545028    0.66106848740056   -3.18022834728337
