    23
        -45.36936455  Gyration_radius:  2.46348636855 Dipole_moment: 3.951
 S          -0.26264601318783    1.04260775498917   -0.72068181025269
O          -0.22784507955352    0.94278971738884    0.72310408309351
O          -1.59152218189220    0.85538626969870   -1.27437783099684
O           0.23152933223736    2.48068279759413   -1.12138761294405
O           0.73701323205496    0.14148532679711   -1.32293331497031
O          -0.45855555710742   -2.75565172354146    1.46662719620134
H          -1.28824811635198   -2.95531146618536    1.90269572070354
O          -1.09328519806016   -1.79135199404934   -0.95250943456202
H          -0.29404916628564   -1.36392373336060   -1.29619165783725
H          -0.69640822865447   -2.45483045390730    0.55937980338614
H          -1.73919819271064   -1.07235167778568   -0.98583822685225
O          -2.26547429377184    3.37623222787222   -1.05187780533647
H          -2.29331275925674    2.39704577404281   -1.08997376413426
H          -0.55798341184575    3.04997855230731   -1.02480451479254
H          -2.62356065283302    3.68793892909280   -1.88618477262400
O           0.98956289565216   -0.70620492139217    2.33653510488553
H           1.95870214087665   -0.73309276754803    1.27622593178280
H           0.44888189289934    0.01330101788475    1.93487410332739
H           0.46205641644527   -1.52386394237589    2.17109322190752
N           2.54389408999184   -0.68243297825576    0.32002109589907
H           2.86460331796313   -1.60340469880694    0.03870204494343
H           3.32398007950804   -0.03905992921749    0.39952923621222
H           1.83186547398252   -0.30596805133597   -0.40202679705581
