    23
        -45.36936447  Gyration_radius:  2.46338302201 Dipole_moment: 3.951
 S          -1.27396961074639   -0.21934461372093    0.06498635450519
O          -1.52344919788111   -1.48309838522838   -0.60451248138733
O          -0.29692333342367   -0.32126334710597    1.12826172920702
O          -0.90465798994684    0.85777371696569   -0.87168333474126
O          -2.62885959272956    0.27187822169501    0.69420744016375
O           3.04868333938417   -0.52447533808769   -0.61892443709241
H           3.44350749213381   -1.38675477790121   -0.48126710473344
O           0.76500020261140   -0.94722348415950   -1.95739600461430
H           0.24903601597132   -0.12987557319079   -1.88534331731133
H           2.23978285944654   -0.68136004704480   -1.15860925426933
H           0.15590416030764   -1.60501373715647   -1.59451244052930
O           2.04446826563723    0.77759335487989    1.46697023728232
H           1.44400139597071    1.84527813681825    0.71612237144743
H           1.21058423481713    0.25929276175999    1.55312065938196
H           2.55997037624824    0.29058618031629    0.78053018519152
O          -3.38193743055457   -2.24385177872262    1.07651583564594
H          -2.64120108947903   -2.24114664333480    0.43441632794649
H          -3.04439686295812   -0.53842355903989    1.05123129167403
H          -4.15853545181833   -2.52924422172603    0.58981467294772
N           0.83249352068210    2.51878573566427    0.05907130291584
H           0.06110465008506    1.86996344485088   -0.33348980957912
H           1.39011841659076    2.89031514726252   -0.70328294432913
H           0.40927561979643    3.26960880642380    0.59377269993743
