    23
        -45.36936445  Gyration_radius:  2.46339777668 Dipole_moment: 3.951
 S           0.20696851976625   -0.90578175057291   -0.90113491709096
O           0.12636389686002   -1.44081769910410    0.47042734678401
O          -1.03371184785017   -1.06423696341578   -1.63816465548548
O           0.68854821708777    0.45927725923674   -0.88334216590624
O           1.30011124552055   -1.79880406864195   -1.59411323131926
O          -1.50618892179888    2.24920433683473    1.62015151759892
H          -2.05091212935169    2.90110581926749    1.17659820361202
O           0.14354266501296   -1.41389413349416   -3.95125438881003
H          -0.49802180777907   -1.16679574673281   -3.25245406770160
H           1.13891386584271   -1.68846529824756   -2.55252197369737
H          -0.21221650776710   -2.19654317661864   -4.37826108926703
O          -2.21697378237358   -0.13268948291696    0.61709522329605
H          -1.81051875175890    1.37306909085055    1.28855739398519
H          -2.23044815652709   -0.21948860177201   -0.34605407506304
H          -1.51852614037651   -0.75608302635319    0.86832725444673
O           1.08867931845202    2.14986338629112    1.06252652174571
H           1.01585084558749    1.69601818639257    0.19067530542437
H           0.15362526015639    2.34701970294559    1.30945945994961
H           1.36610591607540    0.94822195432035    1.79962224138226
N           1.46200524951094   -0.09066856064088    2.21287943138195
H           1.01197240544977   -0.16647864266245    3.11943459587270
H           2.43366261725239   -0.37608079396660    2.26904839071670
H           0.94116800291302   -0.70695179098158    1.49249768813037
