    23
        -45.36936429  Gyration_radius:  2.46327774509 Dipole_moment: 3.952
 S          -0.29573970639090    0.77782821986144    0.99061731288085
O          -0.62854832677194    2.25796807192676    1.40461482391896
O           0.89303933189645    0.79994456750279    0.16481759138275
O          -0.13314256495930   -0.00079199939752    2.20511293333299
O          -1.46553171380672    0.35782740006843    0.19752140067088
O           0.98672202602851   -2.58188434775292   -1.52098290667624
H           1.73710777079586   -3.08681057325209   -1.20414758921860
O           0.83937081767137    1.99144510605005    3.59924550974838
H           0.64750022434394    1.09589908136108    3.24970202889499
H          -0.05059655497965    2.43601880558767    2.17338693771078
H           0.36728492145114    2.06178569161821    4.43209904825569
O           1.36114228040897   -0.05683027013667   -2.25409047332930
H           1.41838513767863    0.33233096110603   -1.35040357706379
H           1.33945453588103   -1.03077584266476   -2.09517624400636
H          -0.02652475277701    0.26814767833571   -2.43552720071173
O          -0.58040820200033   -2.14668447514282    0.60972188454313
H           0.38819918804614   -2.47367051283997   -0.74627256184303
H          -0.15951323256218   -1.77645083920439    1.39792443791991
H          -1.19730747594754   -1.44267792096748    0.35820431779511
N          -1.12028181252710    0.50492732548933   -2.35238627409816
H          -1.31046256340213    0.48859523954148   -1.28761409052012
H          -1.68367610609859   -0.20238961841142   -2.81328418875278
H          -1.32647321238113    1.42624825156900   -2.72308311116518
