    23
        -45.37152250  Gyration_radius:  2.43846658469 Dipole_moment: 4.150
 S          -0.05586898031141   -1.17470736489335    0.28429796350306
O          -0.99280614058662   -0.82399605652404   -0.76267580636599
O           1.25736012541902   -1.56168807681166   -0.24117724651709
O           0.10060727111535   -0.08536955414767    1.25510183615226
O          -0.65474900979190   -2.40650915779337    1.03667425491609
O          -1.69585051530559    2.96923534227480   -0.65115248591345
H          -2.49138383356887    3.34248093473284   -1.03334637383363
O           1.75401657935074   -3.34868103871535    1.62024879495324
H           1.83585316375542   -2.69947573096067    0.89104086642007
H           0.09348112100846   -2.84288561815329    1.49714624393278
H           1.91720803033906   -4.21276972919094    1.23545861786897
O          -2.39011845602785    0.86144170765066    0.80973720868119
H          -1.61819048775342    0.71081871662670    1.37598094473330
H          -1.99870198861276    2.26268625575417   -0.02706314959437
H          -2.27841198856758    0.18384823413817    0.12330238819118
O          -0.12724017094474    1.36671672705175   -2.06557341997548
H          -0.53047945521803    0.51170845050409   -1.80903609471581
H          -0.70699819060590    2.05465139937782   -1.65487993787795
H           1.06084626803293    1.30597818961606   -1.17227833469557
N           1.76484011432665    1.01745638457315   -0.37567408683304
H           1.16727534693021    0.87776211656895    0.48443444438714
H           2.54567424720623    1.65158972211680   -0.24555169645165
H           2.04363693974751    0.03970814620253   -0.57501493096796
