    23
        -45.37152217  Gyration_radius:  2.43829035483 Dipole_moment: 4.157
 S           0.80846474016047    0.77117592565627    0.46511042699801
O           0.30584635039842    1.22073567431723   -0.81641482644666
O           1.22693393173177    2.04817625585382    1.26276944314661
O          -0.22797991754617    0.07634338192932    1.23731043122780
O           1.98980717543999   -0.08819399045760    0.33709786961164
O          -3.08357970331182   -0.47428629771969   -1.54711975127894
H          -3.70589110918548   -0.09248211032722   -2.16773355410370
O          -0.55969153007999   -0.88988612899128   -2.24574345418836
H          -1.53556614141171   -0.80368953631742   -2.11062178355655
H          -0.18741321948407   -0.03563428644833   -1.94393047191435
H          -0.10048723065655   -1.72590750959202   -1.10348071986118
O          -2.23054757358622    1.46076928373359    0.06202707058355
H          -2.87469360732902    0.24128209907518   -0.89550876140041
H          -1.84669930135210    0.98363102511283    0.81288317015384
H          -1.44322619981297    1.71504207492805   -0.44633363714922
O           3.13300963047113    0.73446645656068    2.55595196392740
H           1.85172679218900    1.74984828920893    1.95767143975199
H           2.87836524338133    0.22234665562105    1.76054705351916
H           4.00918972969832    1.08696467997401    2.38434337394216
N           0.29457846362044   -2.04717255018339   -0.12693326380944
H           1.27013480462127   -1.70140232417065   -0.08072926617701
H           0.19735026385480   -3.03773250561163    0.06812864851078
H          -0.16963159181376   -1.41439455216013    0.58070860850764
