    23
        -45.36936441  Gyration_radius:  2.46331208931 Dipole_moment: 3.952
 S          -0.50549582544213    1.03066081734212    0.59700544556621
O           0.18102664466665    0.98597473504572   -0.67669864305812
O          -1.94835483903473    0.93001337089269    0.47199769332653
O           0.05721653435179    0.02826873879169    1.52029873408079
O          -0.17288998535486    2.40694158681006    1.28127380339339
O           0.11151257423902   -2.64779042494028   -1.71174989886384
H          -0.43665940061187   -2.75824866963865   -2.49000984022651
O           1.90853451097302   -0.69255189470774   -1.67788912106439
H           2.28250362928218   -0.83933603526124   -0.29852953256960
H           1.31953264926058   -1.47003116053316   -1.82915992003614
H           1.28455256202807    0.05259728291201   -1.51426938374124
O          -1.50392267418980   -1.73314183041897    0.22186826576401
H          -0.49748850431320   -2.36551597325861   -0.99089074825893
H          -0.92825087420662   -1.38837597665291    0.92122933455431
H          -2.05185206902697   -0.96433462161836    0.01175832572729
O          -2.30812909779457    3.50401324330805    0.15017384665422
H          -0.79838633549425    3.04172415333447    0.87809814648610
H          -2.40314841367881    2.52957787448532    0.10091321637978
H          -2.99122348079162    3.81073035295252    0.75079593414984
N           2.36808843531128   -0.87314198323309    0.81990199554124
H           2.47513819889731   -1.82703162926455    1.14970369321473
H           1.42615620389675   -0.46931711957871    1.16593228652919
H           3.13153956689296   -0.29168483730070    1.14824637645291
