    23
        -45.36936425  Gyration_radius:  2.46326530045 Dipole_moment: 3.951
 S           0.29459608516022   -0.39229458263629    1.19695158110036
O          -0.30240886674450   -1.16478247646567    0.12810188443830
O           1.20450826468340   -1.35531950413540    2.04415526549785
O           1.23798327088178    0.59992507870994    0.64982894695770
O          -0.68506923111145    0.19894548316651    2.09040886764122
O          -1.61142237217548    1.39477900362398   -2.32610490545691
H          -2.56908639961310    1.36769752241087   -2.35068486089389
O          -0.26261660073132   -0.88880384804823   -2.46548408736511
H          -0.83192913409242   -0.08787882901791   -2.55858683346869
H           1.03357590450193   -0.33009892840366   -2.19713967018478
H          -0.41656494250471   -1.18586630553966   -1.53841130443007
O          -0.94277375479053    2.09772563140451    0.17261965880086
H          -0.00158421119121    1.88990481077376    0.27419222854939
H          -1.37362243404691    1.70763704607915   -1.42288082128290
H          -1.34171163289688    1.59193350492121    0.89412085249914
O          -0.83812267342190   -1.90088050244469    3.64794790257447
H          -1.05451280712473   -1.08852814523460    3.14373870855571
H           0.58814875984471   -1.80164033717390    2.65865339099501
H          -0.73807878817459   -1.63048252137385    4.56354062203653
N           1.96417025677533    0.13770428241055   -1.77951856494387
H           2.17305173406318    1.01502081552484   -2.24518215305904
H           2.75314222636766   -0.49700131858189   -1.83834880625849
H           1.72032736043746    0.32230412998176   -0.74191791388089
