    23
        -45.36936432  Gyration_radius:  2.46330417949 Dipole_moment: 3.951
 S           0.46792200395258    1.05317959342880    0.58800026162304
O          -0.97797457011862    1.12422365628553    0.30840678464386
O           0.75562676293028    0.68092085716149    1.96139316559522
O           1.12899650464786    0.20611609103660   -0.38210942311569
O           0.97037901144816    2.52728765480617    0.36979346319797
O          -0.85626227651026   -3.00993130315335   -0.40200385564445
H          -0.32481872650844   -3.72679440314791   -0.05265941825604
O           2.92680994369936    2.13678478111041    2.11962697999204
H           2.26102919379139    1.42787541234733    2.24281556496642
H           1.82051015831712    2.57314136468641    0.85139927532278
H           2.89535635351030    2.67607811679880    2.91310787260188
O          -1.12592283821952   -1.23506223995153    1.58857776363904
H          -1.43980564743580   -0.41252017987783    1.18322164006029
H          -0.99866019277413   -2.38900648725231    0.34925752978838
H          -0.31759701344922   -0.94654213775349    2.03453696623351
O           0.20950841119244   -1.39688159376609   -2.22311347091980
H          -0.14931333840066   -2.11892823637500   -1.65376299897675
H          -0.86669552241303   -0.44531714486381   -2.24822494870122
H           0.77236098098344   -0.86697975550026   -1.61172228344686
N          -1.63418968092391    0.35172504164596   -2.06133214288012
H          -1.37924330842990    0.73483475597596   -1.08237681043619
H          -2.57068147550132   -0.03916226826827   -2.04458145290676
H          -1.56733474328214    1.09495841540327   -2.74825044229099
