    23
        -45.35981436  Gyration_radius:  2.32613871927 Dipole_moment: 5.668
 S          -1.13969917115810    1.52018286387374   -0.99992489691821
O          -0.69265076744028    2.40151567919132    0.20217760619702
O          -1.79834677282002    2.28013703987767   -1.99257480027311
O           0.22465449518693    1.02612677685251   -1.56499538846246
O          -1.84594309190814    0.37926668835488   -0.46456068542295
O           0.56406671545219   -0.77250457520932    2.04622608518775
H           0.94412811423227   -1.40750458143043    2.65417999657844
O          -1.51831543424923    0.96589605430750    2.13323209854894
H          -1.02165596814697    1.94164338767950    1.04547990903615
H          -2.09462685060701    0.50157786257688    1.50922563882772
H          -0.77748696707558    0.35207827376562    2.30888633527705
O           1.78503848338675    1.00396064456649    0.47397658327464
H           1.43578056432999    0.33149701622171    1.10191273655268
H           0.88598175210785    0.98005934155340   -0.80460365166593
H           1.58957653979365    1.86497982109617    0.85408764006744
O          -0.57939807365502   -1.94631744677781    0.07903537057336
H          -1.18490927355873   -1.23193782105517   -0.18900090723313
H           0.05791781259714   -2.03155866141435   -0.66889681943879
H           0.12721795885191   -1.30932128740915    1.30414224173731
N           1.12127980241088   -1.80090341053031   -2.03913051474109
H           0.86346296107073   -0.84820722199778   -2.27752954793066
H           0.93505145808416   -2.38624000222130   -2.84358136141856
H           2.11887571311505   -1.81442645187333   -1.86776366835431
