    23
        -45.36936462  Gyration_radius:  2.46352486168 Dipole_moment: 3.952
 S          -0.75998283636652    1.03347834052596    0.17419179665883
O          -1.13455643999905    1.51643966555662   -1.14257192231185
O          -1.40904834808403   -0.24521862524417    0.51717170647938
O           0.67255515957423    0.93865956978275    0.35996597763344
O          -1.32327637242344    2.04366706714090    1.23964585609111
O           1.71408052899942   -2.17052422000744   -1.51848296316749
H           2.26085882132730   -1.93706729043528   -2.27011589752663
O           2.24610522810669   -1.08419177005969    0.84598927289434
H           2.20784336295955   -1.54083608859641   -0.02819715894010
H           1.85970181449512   -0.19493211956488    0.66912572427654
H           1.08154887149250   -1.58886608662606    1.51910361256041
O          -1.02111685183273    4.04624691625198   -0.47498980681184
H          -1.17519683143208    2.92690766839444    0.84629357203429
H          -0.98264033007769    3.20551591103519   -0.97770077664465
H          -1.82730958897765    4.48798105892587   -0.75133469685260
O          -0.67594475982110   -1.03416329941420   -1.94504986314917
H           0.82234725157589   -1.79739639398807   -1.70760279345081
H          -1.14441310833151   -1.05289517396987   -1.09665155181819
H          -0.68491002323139   -0.09177379620916   -2.16187632318678
N           0.06051718460340   -1.83765480884347    1.91281634009843
H          -0.18732537850613   -2.79945118092302    1.70380301228416
H          -0.59629413414082   -1.16547198882582    1.37739095125091
H          -0.00354317990388   -1.65845334504694    2.90907592166805
