    23
        -45.36171550  Gyration_radius:  2.47658059343 Dipole_moment: 1.798
 S          -0.52538382419196   -0.10934276296292   -0.66430798903987
O          -0.99657377645303   -0.77631686823843   -1.96351443196024
O          -0.31643091716391   -1.11644360107015    0.34359683738236
O           0.62000400718037    0.72193337260702   -0.93318764477051
O          -1.70244319110319    0.78870312883140   -0.27072452325255
O          -0.52630091805344    1.78298141037840    3.03486116089557
H          -0.79958258274226    2.51010500447431    3.59662686295288
O          -2.13897340173255   -0.05724018763704    2.03076504035485
H          -2.03295038033453    0.47990237270847    0.67575446796701
H          -1.53368337278709   -0.79274722778660    1.85379638569589
H          -1.60729637088485    0.59982984581142    2.54592006182372
O           0.34881284478534   -2.88506188057222   -1.68494118963970
H           1.23980094440371   -2.45461664636226   -1.81966261906999
H           0.20424668768800   -2.86980801016723   -0.73087236255956
H          -0.53509677520183   -1.69620771818753   -1.99772901661179
O           0.11227856523212    2.84296621240029    0.64969482336777
H           0.47680530843539    2.14179727668836    0.07975499249326
H          -0.72204501406990    3.08626156673128    0.24047072107128
H          -0.18848527518285    2.18556350741443    2.20326865060416
N           2.49360606404167   -1.31821203617029   -1.81426579259870
H           3.24554566086780   -1.46397045658645   -1.15206107604741
H           1.97275295589596   -0.49607334494054   -1.51195417322904
H           2.91139275136114   -1.10400295733555   -2.71128917582401
