    23
        -45.36262114  Gyration_radius:  2.44833869321 Dipole_moment: 2.540
 S          -0.49553444192908   -0.44783048684988   -0.82159377875822
O           0.48726072441084    0.55219897559934   -1.14894098065558
O          -1.00230268551711   -0.17170808611537    0.60972189032017
O          -1.72679559898777   -0.27441852227854   -1.71021809314056
O          -0.05082920778847   -1.81017562335153   -0.91547428504521
O           2.10985632979097   -1.62733391949096    2.12723184063112
H           2.78382317675733   -2.23226559059723    2.44144497111770
O          -2.28096954400665    2.19890829266144   -1.81648212380172
H          -1.77461160650244    2.52946909378075   -1.01372597621630
H          -1.81334188879511    2.53063121414200   -2.58656171146125
H          -2.01450488242642    0.70957879874374   -1.75747505691584
O           2.52969934063221   -1.14504190858063   -0.47222736775348
H           2.22402991386572   -0.26316544910771   -0.72214786640670
H           2.36029965122791   -1.38982689463579    1.20443610219603
H           1.81996817873687   -1.72053886386004   -0.79413097587572
O          -0.42291439330709   -2.34730251664267    1.72472702213176
H          -0.86851945407002   -1.02510952220459    1.17184273067384
H          -0.31359342355202   -2.75158984301883    0.85299857764048
H           0.48851229387772   -2.12369766567665    2.03272506593311
N          -0.70496301406886    2.75683042772343    0.21583857159647
H          -0.23136872093635    3.61299614014822    0.47522620770833
H          -0.01784024189870    2.10166408107336   -0.15253839091730
H          -1.08536049551442    2.33772785853241    1.05532362698395
