    23
        -45.35981416  Gyration_radius:  2.32631007605 Dipole_moment: 5.653
 S           0.76967861582162    2.00179848762696   -0.01550083234143
O           1.31253840969137    1.62126863855306    1.39235019823655
O          -0.66365512173465    1.82284103578633    0.00741335972382
O           1.25717258372289    3.25663794696850   -0.44511973100900
O           1.38446257124851    0.88730366921686   -0.91271881497952
O          -0.87819541874014   -1.58095028511042    1.35485820037666
H          -1.31563057644937   -2.41267389577904    1.53968792104793
O          -0.84674816997755    0.87421817777836    2.51100362732447
H          -0.91932028034021   -0.07383597731334    2.28212133102570
H           0.51222229105492    1.34977718234455    1.95506894937705
H          -1.33791912091454    1.34380727345232    1.82157965174156
O           1.65742859589858   -1.11956269914744    0.66478397718816
H           1.50603535321776    0.05762857480954   -0.35174441791062
H           2.06030157844126   -0.69231690170886    1.42586044101139
H           0.75447828742655   -1.39704432906583    0.94078844636733
O          -1.81255112186948   -0.49753651984070   -0.76862912294795
H          -1.55577677678494    0.42503784172003   -0.59029170120900
H          -1.26758404215584   -0.76597262863477   -1.54562331199142
H          -1.30294942478412   -1.21311659051332    0.50991409049872
N          -0.04340633252125   -0.98636123819978   -2.77653677463668
H          -0.34081748530549   -0.80234858272559   -3.72634464421840
H           0.47860940426428   -1.85367630276317   -2.77564246401742
H           0.59162619078852   -0.24492287744858   -2.49727837865534
