    23
        -45.36171507  Gyration_radius:  2.47663721407 Dipole_moment: 1.791
 S           0.38646007707172    0.63141983864243   -0.42824997449122
O          -0.72906212257858    1.67949407817007   -0.49326235674268
O           0.68834866615888    0.31971946680799    0.94488405776619
O           0.00506120437778   -0.50045569479302   -1.23367304293463
O           1.58748284626298    1.34014020072071   -1.06832258582348
O          -3.21548520649234   -0.07491189360619    1.52403723983416
H          -4.16064772538922    0.06593590633467    1.60027287630716
O          -2.68250870011517   -0.36716053732943   -1.09289412209586
H          -3.04187992145109   -0.29246509097487    0.58041446259797
H          -2.76709994317776    0.50965478084889   -1.47608940724141
H          -1.74174996489180   -0.59790745118681   -1.19844815195147
O          -1.36870483808385    1.77771338398516    1.91183760951839
H          -0.58279240335635    1.25182660725996    2.12243902167567
H          -1.04524557911415    1.86566362099853    0.48950218033129
H          -2.12013374963985    1.13321981439118    1.90524294938771
O           3.35288671015498    0.09018897340488    0.21829001194069
H           2.79412987228628    0.07977931169794    1.00510245480523
H           3.19438860293451   -0.79078467555369   -0.22437124579014
H           2.42630765295004    0.94342916765079   -0.62174451165760
N           2.42558210806368   -2.09108579190326   -0.98791386399761
H           2.80056929472162   -2.37143150909000   -1.88560168068928
H           1.51128857416308   -1.67211854270480   -1.15237697919142
H           2.28280453516930   -2.92986396381312   -0.43907493156562
