    23
        -45.36171543  Gyration_radius:  2.47693168693 Dipole_moment: 1.804
 S           0.28613845531553   -0.03121554017839    0.80160751269695
O           1.20262215267347    0.55969365068247   -0.13973242891248
O           0.62226879370084   -1.51859421879531    0.94672438128042
O           0.54582523156471    0.53792290963232    2.20287330659223
O          -1.10596780532583    0.12857987686774    0.46938883292776
O          -0.59803342924346   -2.66012543600361   -2.29239225070524
H          -0.41532176951344   -3.47076042308970   -2.77039353941002
O          -1.12907124461564    2.40960657565736    2.04362144999223
H          -0.62645526132216    2.93699702407527    1.36063824672769
H          -1.72899544978385    1.84878979631936    1.53668734572988
H          -0.09870938326624    1.33350424152025    2.31304917296406
O          -1.52443589645162   -2.52292600784049    0.18121298034813
H          -0.24417250742622   -2.06261361922909    0.71479455810793
H          -1.92324732764694   -1.64029179129725    0.20600360243565
H          -1.29677225395104   -2.67922883115460   -0.76928891170525
O           1.78116432374282   -1.55800384045263   -1.70294784002681
H           2.15718306376882   -2.10560929796123   -1.00907789321764
H           0.26618082796239   -2.20465168855570   -2.17676392430425
H           1.63597136164210   -0.68913514940183   -1.28663730851538
N           0.37085910059076    3.33835344619190    0.05368190366494
H           0.76281212636302    2.41889727928392   -0.14516657788510
H           1.14149144436132    3.96411394533071    0.25277489796675
H          -0.08133455300363    3.66669710847516   -0.79065750679000
