    23
        -45.36171554  Gyration_radius:  2.47658194832 Dipole_moment: 1.797
 S           0.69093257941173    0.39432612085636   -0.30901639428160
O           0.96594589169585   -0.82052318717330    0.41466769060012
O           0.58667721514760    0.06420659240157   -1.80115647670302
O          -0.48816751131145    1.09965080451897    0.12247590881100
O           1.90447485206434    1.33005847124855   -0.22832885806636
O          -2.61809397469978   -1.67423199420425   -1.73638318527674
H          -3.01566622139701   -2.26254207604237   -2.38045856279571
O          -1.75945166753221    0.77643896211370   -2.23711740214603
H          -1.77658144939039    1.18790328964602   -1.36014435438443
H          -0.35516867987116    0.38808063830550   -2.13145524338555
H          -2.21447594975245   -0.09552069323275   -2.12500168689686
O          -0.17758791933452   -2.65741769755032   -1.19139615426942
H           0.35767540362649   -2.47096785645847   -1.96696823759135
H           0.22384618651221   -2.13092567170079   -0.47652512248716
H          -1.77468024220710   -2.09662726185602   -1.45702073206074
O           1.12812576873806    2.60002238871797    1.80136602608887
H           1.73257990121093    1.95507239746748    0.57167111432684
H           0.21232988638062    2.54906500310800    1.50124673662754
H           1.23419163590917    1.84114327584455    2.44158398260714
N           1.28241689930769    0.27721769925880    3.08773723462721
H           1.18124074171402   -0.26145273949083    2.22856205128360
H           0.52747942427347    0.00903856709751    3.70690697866923
H           2.15195722952894   -0.00201503284388    3.52475467669268
