    23
        -45.35981416  Gyration_radius:  2.32630813752 Dipole_moment: 5.653
 S          -1.48098681885930    1.55131858825102   -0.00514800046072
O          -0.10530707457067    1.73814488545166   -0.71058987550844
O          -1.09668642695358    1.68739955846277    1.49662901295498
O          -2.35248210592754    2.58336708372596   -0.42013364202418
O          -1.91772185804962    0.19136426707580   -0.22145147466576
O           0.88224949774002   -1.64281516079625    1.27638333375107
H           1.42534160138820   -2.41591055809572    1.43340374642928
O           1.60925283228616    0.91059289027901    1.01163143946411
H           0.61903108283261    1.41578061692783   -0.08669461175996
H           1.29257061245597    1.35443966899134    1.80333699901944
H           1.44833570801505   -0.05139530337402    1.14267692663832
O          -1.46619189900760   -0.70924368476391    2.26571101136117
H          -0.61284338872541   -1.15229145547912    2.08690500096155
H          -1.25779614792250    0.78199308773895    1.92692740664408
H          -2.00294948503582   -0.85512616858343    1.47347486705530
O          -0.20400510566454   -1.73182539024600   -1.04053908059907
H          -0.95139799042009   -1.12868766297406   -0.87772755545269
H           0.36524743654375   -1.25880199315862   -1.69243656390445
H           0.48500542493607   -1.75278291320814    0.34915473835794
N           1.23237449972739   -0.09901384940675   -2.67493413806450
H           0.79179563980266    0.75064273449744   -2.33587379628464
H           1.06734748607564   -0.16073877584010   -3.67163465784021
H           2.22981645933346   -0.00641049547540   -2.52907108607365
