    23
        -45.36171546  Gyration_radius:  2.47640636989 Dipole_moment: 1.796
 S           0.22310073831979    0.72953975200812   -0.38225680902384
O           1.13754990805390    1.62903050945409   -1.22452894990419
O          -0.44650371314080   -0.21736722920520   -1.23671292353799
O           0.98369113003978    0.14177582707360    0.69008088355618
O          -0.81719077270958    1.70039059039171    0.18496302680981
O          -2.46092000203633   -0.58694636371182    2.50227548577123
H          -3.31392421322579   -0.52456664192709    2.93531923809165
O          -2.90263897030853   -0.27780723705628   -0.12994823749635
H          -3.09993207635608    0.65412925781884   -0.25392445058087
H          -2.06696475365778   -0.42367272135266   -0.60931223462350
H          -2.63944735332646   -0.58544347127347    1.53481238735263
O           3.21126975763996    0.22810699855911   -0.95587017885129
H           2.96505585758073    0.01168711535731   -0.04816313209883
H           2.88477879324252   -0.54002392883277   -1.50383530489833
H           2.06974330787603    1.19228230766841   -1.20224251666605
O          -0.55326866341719    1.24103304879577    2.61837633944333
H          -0.75679967696684    1.65244901870555    1.23135976201128
H          -1.27361731472191    0.57200738022032    2.73400818620899
H           0.24224683975029    0.72681727957007    2.41488770334714
N           1.86274142240828   -1.67954675015881   -2.22740879238523
H           1.88958416369300   -1.72884006385751   -3.23827999773125
H           0.96032068894860   -1.28799395987211   -1.96106722187410
H           1.90112489232458   -2.62704070835804   -1.87253227293554
