    23
        -45.36171516  Gyration_radius:  2.47658615991 Dipole_moment: 1.793
 S          -0.50071777478171    0.68899197601570   -0.07717933162125
O          -0.18102360242337    0.03240430431199   -1.31891813209640
O          -0.78463612597901    2.17447474966732   -0.33595043719689
O          -1.83973749275326    0.14820680776328    0.43418387451414
O           0.50376393261261    0.56326878856128    0.94707701121534
O          -0.71862930446505   -3.17771363576237    1.43161310789059
H          -1.22290383948109   -3.97355470753773    1.60873724367918
O          -1.10701481271616   -0.83752105119229    2.60106595081780
H          -0.24991149843069   -0.40038606441632    2.48750342231996
H          -1.67720412639659   -0.24184194574784    1.39414211282009
H          -0.96332891350458   -1.77306523229900    2.31134907028867
O          -1.44682025403429   -2.32611372419801   -1.01021723649873
H          -0.88922295715395   -1.56629220289666   -1.25760447959600
H          -0.90421147594437   -2.93357357307483    0.49679096902319
H          -2.32995404542606   -1.96240598040661   -0.90741459838785
O           1.56493289223399    2.97336908621750    0.08190434520673
H           1.67790354874789    2.32253213727667    0.78541934848562
H           1.96152099492086    2.54903021660608   -0.73039624260169
H           0.10623986240745    2.66806748350911   -0.18303747413931
N           2.25316598882145    1.46840611606680   -1.99988387578333
H           2.23188533732419    1.85469820259496   -2.93556352489129
H           1.43873826446062    0.86461070617307   -1.89622535783328
H           3.07716539198924    0.88440757271551   -1.92739577568332
