    23
        -45.35981436  Gyration_radius:  2.32612367919 Dipole_moment: 5.670
 S          -1.36625488568315    1.30713930005160   -1.01758707810803
O           0.09936610069724    1.12353529898082   -1.51062866252045
O          -1.85545196735082    0.02388885383865   -0.56919943677835
O          -1.17510718311356    2.20215376123215    0.24100379435230
O          -2.10861407622269    1.96604664021593   -2.02328531555340
O           0.59294038976446   -0.74040317380098    2.04981434373116
H           1.05919342627245   -1.31454370942827    2.65829679171403
O          -1.79978188102077    0.54053240945673    2.06326487550737
H          -2.23415924476276    0.00046365460901    1.38743404667745
H          -0.96108825110155    0.07959480835717    2.26468301144641
H          -1.45088950035427    1.64639247455478    1.04470191257499
O           1.51506769745845    1.31666360446141    0.62274130914638
H           1.27450624738802    0.55895663675278    1.20284936228025
H           0.71255734893680    1.17435783118524   -0.71122575317173
H           1.12851461241141    2.10224908529236    1.01958076405557
O          -0.17691224112303   -2.02469452468351   -0.02700817547403
H           0.31620644107622   -1.31802849247667    1.26272529138299
H          -0.89851638494948   -1.43395042524315   -0.30828905022269
H           0.50555584491315   -1.94493206624446   -0.73464113380363
N           1.57597198533877   -1.44100993328149   -2.02369591367089
H           1.55909725841570   -2.01313913249448   -2.85844620174589
H           2.54395641624088   -1.26192297801411   -1.78778402847071
H           1.14384184676907   -0.54934992332317   -2.24530474334902
