    23
        -45.36171552  Gyration_radius:  2.47680068996 Dipole_moment: 1.805
 S          -0.55623732054378   -0.02055955488966   -0.64688500781785
O          -0.58995143522217    1.18905761623285    0.13479492236829
O           0.72629010817244   -0.67392060649970   -0.69192314863743
O          -1.61621624103476   -0.98478714570273   -0.10530261184980
O          -1.03027383998322    0.27399385945279   -2.07637215582003
O           0.04336023189050   -1.90488835805564    3.00872112337426
H          -0.31101777552463   -2.31122016313106    3.80136206434317
O          -0.16178599062764   -2.89293263336800    0.56359700047812
H          -0.03611792855826   -2.67040396580928    1.51976963255394
H          -1.12959239485494   -1.87742478192479    0.15253882978117
H           0.57584955399516   -2.46559159054141    0.10319307720205
O          -1.47261775957286    0.25592841118820    2.50374967259115
H          -1.09206955205422    0.74305104218271    1.75056187923904
H          -2.31146340035566   -0.08313915353128    2.18119922552517
H          -0.44073902450272   -1.05675094360526    2.89087632034009
O           1.25608030030645    0.72050277524017   -3.02867132340794
H           1.40735939801528    1.57366220398081   -2.53200957179646
H           1.63971584347482    0.03325817224032   -2.47016283090438
H          -0.18109157348320    0.46705165049193   -2.62616439099724
N           1.36722724564229    2.76222640832300   -1.32872069167087
H           1.01292896746603    3.66974019564559   -1.60433532791963
H           2.21680615478498    2.91201827175028   -0.79865263255794
H           0.68355645258047    2.34112829034415   -0.70116406446193
