    23
        -45.36171544  Gyration_radius:  2.4766306189 Dipole_moment: 1.799
 S           0.06813287221997    0.61939675935115   -0.58446130390277
O           1.20938410888644   -0.25515190270048   -0.49652350617311
O          -1.18812328888158    0.00846375847418   -0.23457493972878
O           0.31888189849658    1.84447472471838    0.30054418448726
O          -0.02524568225230    1.20687266006171   -1.99886608108714
O          -0.03900699232198    0.23062959160025    3.55126989498344
H           0.24035675995193    0.52094609611137    4.42114265996285
O          -1.57518917752225    1.61439232307526    1.90164041261683
H          -1.94693829198679    0.92439279581147    1.33215959779160
H          -1.11109740100560    1.13002365822687    2.62946616821891
H          -0.46860742589891    1.90223981774210    0.99089799182539
O           2.13000478152074    0.32701287586068    1.96815187299735
H           2.29377245246048    1.25938259661740    1.80510744378580
H           0.77689996515034    0.16085834320276    3.00610116332102
H           1.90130190182121   -0.04415762738202    1.09678825132235
O          -1.56004368986489   -0.56124539029316   -2.92175050673828
H          -2.02697991096801   -0.61767498997528   -2.07902927174017
H          -0.65771432081750    0.58784976617267   -2.52557395829957
H          -0.88911638630328   -1.30043782925159   -2.89695370359289
N           0.41264840393292   -2.27526205738775   -2.42872391944141
H           0.82315582951001   -1.67418585340751   -1.71542648475033
H           1.12198122482400   -2.44766071998855   -3.13031375732244
H           0.19154237906235   -3.16115939660242   -1.99107219855271
