    23
        -45.36171552  Gyration_radius:  2.47682608176 Dipole_moment: 1.803
 S           0.11069919041830    0.24422450676366   -0.80938757786804
O          -0.12783135807960    0.17081307593873   -2.32348208564080
O           0.49350260805647   -1.05516653084299   -0.32055387466307
O           1.28321287561446    1.22063368795721   -0.67420295255303
O          -1.04308684817157    0.81583384498967   -0.16341321484298
O           1.95293299006356    0.76128077323403    2.87957376039116
H           2.44687462801806    1.31003058574069    3.49103656212923
O           0.12108799392610    2.35041114099045    1.72142568063119
H           1.21443549812425    1.31647774810880    2.54183763978601
H           0.60994270964205    2.91357919008730    1.11593209837294
H          -0.45551363018446    1.80972204595064    1.15176393198819
O           2.88387160288386   -0.20097513233830    0.59847630145603
H           2.30388580468759   -0.96074924743861    0.44017478338162
H           2.06891104342866    0.70813435515522   -0.20452246115254
H           2.67122976756842    0.10234366922792    1.51634185109554
O          -1.05043387134807   -2.17065315025549   -2.33437376051482
H          -0.50322756366449   -0.77003471335195   -2.50930659825543
H          -0.43689914898199   -2.43153024206534   -1.63656150971217
H          -1.90126047809249   -1.94614184625584   -1.86219361278226
N          -3.02094503702438   -1.20679626836072   -0.83111885161407
H          -3.84652833438186   -0.81705229799365   -1.26885956380797
H          -2.45219341409917   -0.42987394846069   -0.49721902874379
H          -3.32266704883711   -1.73451124635216   -0.02136750637884
