    23
        -45.36171537  Gyration_radius:  2.47625546657 Dipole_moment: 1.803
 S          -0.62064433996911    0.58030973251298   -0.08196370144244
O           0.17636891123143    1.88707107479024   -0.02343868479129
O          -0.15113524822586   -0.23384760743442   -1.17310688760766
O          -0.56455810838124   -0.05281164670137    1.21075553310762
O          -2.05530165412692    1.04259465127317   -0.36976285137712
O           3.52752099883629    0.46254597448175    0.10198821715486
H           4.35873884885901    0.85882154270511    0.36862029133222
O           1.90370966647763    1.41730136612278   -1.75505547662446
H           1.40041491271944    0.63128175756890   -2.01503571677937
H           0.91010128274628    1.84408353345541   -0.77199001257298
H           2.62744751393853    1.08104395678004   -1.16963722686392
O           1.80447406131529    0.84557265462328    2.12861758491542
H           2.93502038177884    0.50528123695934    0.88604584531870
H           1.58166826630231    1.77973024863775    2.10792815990940
H           0.96993150739140    0.38371291175392    1.92968162036045
O          -2.76978331334354   -1.04544039545587   -1.57989886766642
H          -2.50195704092247    0.27987609776729   -0.89806888891741
H          -1.89407421208279   -1.13287915967521   -1.97606633245207
H          -2.75204433917049   -1.63915181297738   -0.77722550074464
N          -2.32377310506180   -2.31270718682879    0.71540760052138
H          -1.82552778610264   -3.19400001566853    0.69907890778675
H          -3.06280647456142   -2.39037065246586    1.40307024227114
H          -1.67379071955358   -1.59801825212409    1.04005614510189
