    23
        -45.36171552  Gyration_radius:  2.4766003039 Dipole_moment: 1.795
 S           0.82258591112741   -0.08174211601718    0.21247422321238
O           1.98232604948273   -0.45599604268610    1.14509847868864
O          -0.08120928666564    0.80250105643409    0.90169017939410
O           1.50817594343079    0.66278992256132   -0.93730062963096
O           0.21446465779660   -1.27861847870961   -0.30999304953600
O          -1.48160261366985    1.85884992742407   -2.65007812640975
H          -1.59253795364050    2.18838458739704   -3.54344864960042
O           0.24014556148354    2.80527226810552   -0.87993355998628
H          -0.15101225423415    2.52819350777777   -0.03795954163177
H           1.10179912700340    1.62951708222798   -0.97479530636660
H          -0.44559611311787    2.60377564831015   -1.56485566314386
O           0.62962267152525   -0.45432440796808    3.26771697177676
H           0.09103061447818   -1.26485462523740    3.04425847247165
H           1.58927359059265   -0.48113073216216    2.09642122684003
H           0.10503742835133    0.29105252650545    2.95059121466858
O          -0.29283700867045   -0.54230406814375   -2.85194623909752
H           0.61863216410216   -0.36225456406903   -3.09605045392157
H          -0.24083105079402   -0.94539660181031   -1.96638889064146
H          -1.15045697787868    0.93621341103733   -2.73309332092079
N          -0.75317210386453   -2.44396027741198    2.17092426073661
H          -0.44849368638653   -3.40110365238574    2.29781827040956
H          -0.50173466476842   -2.16263434797148    1.22420678504701
H          -1.76360999570975   -2.43223003320915    2.23464334765622
