    23
        -45.36171531  Gyration_radius:  2.47647337315 Dipole_moment: 1.794
 S           0.60910401211448   -0.34703753357149   -0.48910830633739
O           1.70927471172880   -0.32293988422665   -1.55840203977312
O           1.08722656035900    0.28567093225051    0.71344774441426
O          -0.59871095052339    0.22096878776320   -1.02994226054336
O           0.40672046693289   -1.84000246274569   -0.21152312714280
O          -2.55034419837716   -1.58330111850171    1.91021695833412
H          -2.93570925298093   -2.21907771056086    2.51542475093034
O           0.98161780132492    1.82831415148489   -2.64269053273733
H           1.23082675318885    2.41688863507074   -1.87544701634315
H           1.54036186703349    0.52038988922461   -2.12508224671101
H           0.05376434383458    1.60604348076789   -2.49751344087277
O           0.03044334969460   -1.31349222015155    2.60729757567398
H           0.46464592900406   -2.12125772774167    2.32144622435675
H           0.42999054300900   -0.60833201179049    2.06648497597102
H          -1.63991191122009   -1.40440780214129    2.23726719132252
O          -2.03845172770403   -2.03068860248847   -0.64591275962071
H          -2.02182460021408   -1.13586120969941   -1.01692806559894
H          -0.59332287629739   -2.06919865151757   -0.42941948191198
H          -2.37454574128805   -1.92361294488004    0.27889888300044
N           1.51383435478127    2.97529698743291   -0.30319734695006
H           1.39868627600689    2.10128034235136    0.20808285363395
H           0.85171239847337    3.64066218847878    0.07639952213948
H           2.44461188113952    3.32369449511949   -0.10980004525400
