    23
        -45.35981436  Gyration_radius:  2.32612352068 Dipole_moment: 5.670
 S           1.68498837962396    0.97348861595090    0.90757865774108
O           2.24069365925356   -0.47569543878007    1.02028322302110
O           0.41950969108610    1.00999611399965    1.60351368072683
O           2.65159578289711    1.93701711003736    1.27359745446029
O           1.40395936888876    1.09525332300549   -0.61919280096010
O          -1.25498896489592   -1.87594666876450    0.08526265802140
H          -2.01148476757094   -2.41892939378421   -0.13871958795716
O          -1.92025412919441    0.58548832841055    0.31768595274046
H          -1.59694220243774   -0.92395555706050    0.16603461035634
H          -1.18321430711900    0.88647261083360    0.87893005971869
H          -1.78570247812071    1.04531194195161   -0.54447759030483
O           0.32531681938484   -1.58679791060995    2.27272459259392
H           0.01784312541326   -0.70663774785138    2.53326211584103
H          -0.28588330387264   -1.87702719231562    1.56657319123517
H           1.56670508011404   -1.01062024701130    1.55922034479889
O           0.91057771049469   -1.31096211305006   -1.36718787302072
H           0.08639432479502   -1.59574886982745   -0.91097924004562
H           1.18626994592254    0.17741492503546   -0.97670755943719
H           1.63625245208220   -1.77862621550643   -0.94442098896156
N          -1.16971220264057    1.83726955704214   -1.97792976334161
H          -0.19793090711082    1.93043617134232   -1.69889130136474
H          -1.53363559199206    2.76416913850905   -2.15914636634290
H          -1.19035747499890    1.31862951844424   -2.84701346951868
