    23
        -45.36262102  Gyration_radius:  2.44711565169 Dipole_moment: 2.523
 S          -0.64412789874712    0.83974000376386   -0.07215670702398
O          -0.43952227220828    1.44103310236771   -1.36014934263158
O           0.71345555853716    0.69705103531280    0.64797974126632
O          -1.44528093167977    1.80834248444890    0.79712738870015
O          -1.28361343404946   -0.45033678474226   -0.08111824022941
O           2.27406147236616   -0.92366838028819   -2.35898088308759
H           2.67028429174824   -1.08173092017319   -3.21749110737999
O          -2.11432578628285    0.58492164481696    2.91661309683118
H          -2.97171496793009    0.19809698220045    2.72419350554781
H          -1.45337973012193   -0.17164957252591    2.90187668330817
H          -1.71150490866101    1.37165714487603    1.68674985286467
O          -0.38973051832186   -0.94815873329096   -2.62157534044543
H           1.30366232199670   -1.04869181223413   -2.47527140872658
H          -0.81953780356175   -1.24823818115953   -1.80969496834275
H          -0.50104760834124    0.01333615565545   -2.58350559020648
O           2.27365578113963    1.45881807744642   -1.16804266910225
H           1.45387034183964    1.03455910316473    0.01549683700398
H           2.43983398742162    0.58744776209246   -1.60243622846098
H           1.52112884891365    1.84622712435656   -1.63585114570406
N          -0.39462500004170   -1.35866657495020    2.47568961293775
H          -0.37884404032867   -2.32047971000728    2.79077003624148
H           0.54542326754398   -0.98804703903743    2.54016758789731
H          -0.64812097122021   -1.34156292210885    1.48960926873993
