    23
        -45.36262130  Gyration_radius:  2.44649090575 Dipole_moment: 2.518
 S          -0.19830680024002    0.90911613356234   -0.51187285672638
O           1.15021330510198    0.41078052270502   -0.59474441445817
O          -1.13541601304274   -0.28574928652113   -0.23621985912311
O          -0.42422866510174    1.92928825825705    0.47316354638808
O          -0.63771226057763    1.44066927794186   -1.87566823606268
O          -0.10345843182675   -0.40149987125484    3.37347588512164
H          -0.00300414181089   -0.21840012728709    4.30908992197567
O           1.64126433036072    1.09959259567530    2.00743142126647
H           0.62300544912785    0.08341479077418    2.91730543962540
H           1.90518381141889    0.66126579709737    1.18735124161660
H           0.99479260198461    1.75429351341532    1.70501705474462
O          -2.17637410687080    0.44442441796303    1.93077994904480
H          -1.67333359599579   -0.08586349144740    0.61982837937739
H          -1.52163020476572    0.04957327307678    2.55604388091415
H          -1.86808293179644    1.34531965298123    1.76187446299589
O           0.11124169880587   -0.22136164884466   -3.64014747556350
H           0.98209959769371    0.07631082035084   -3.91356182787545
H           0.25727374853570   -1.03468079309512   -3.06854548731115
H          -0.38875735990878    0.78497517373698   -2.62472637188015
N           0.58031733097956   -2.09081352872966   -1.84730468888071
H           0.98822740843774   -1.38505091932133   -1.23703650438674
H           1.19292521265749   -2.89635842997092   -1.86768990106328
H          -0.29623999317408   -2.36924612108119   -1.42384357973857
