    23
        -45.36171550  Gyration_radius:  2.47643884088 Dipole_moment: 1.801
 S          -0.39769286113931    0.32067744518898   -0.68361735191300
O          -1.57701791272189    1.05078743624625   -0.03351206804348
O          -0.65849227205177    0.47802692812600   -2.18761954641576
O           0.82043002644469    1.00246994278294   -0.32799624477468
O          -0.43072359703685   -1.07604786757104   -0.33451197670478
O          -0.98706692077359    0.04462610318787    3.42035468946311
H          -1.32046408867739    0.41764401325921    4.23810371898329
O           0.49858733501803   -1.64626945830566   -2.88264225044753
H           1.42101078133963   -1.33709792162318   -2.65758658904761
H           0.18357436484370   -2.09541796370111   -2.08862173457761
H          -0.24833780909683   -0.35216264635996   -2.63829248975393
O           0.14735656828740    2.06301476360971    2.05623302348593
H          -0.47654971651148    0.75888604421776    2.97663682844221
H           0.57131277389012    1.70721824846377    1.25436136358668
H          -0.58001765914723    2.60131405494490    1.73387101207346
O          -2.47992000391168   -0.77670862468308    1.39751179355298
H          -2.09456443604279    0.35390113567665    0.55559045238701
H          -1.89115666207626   -1.39700252361128    0.94222697591874
H          -2.02013129833865   -0.55636936312680    2.24595567353620
N           2.71196724369840   -0.54853365148358   -1.89813757578261
H           3.29732771576435    0.02955528266232   -2.48829673775150
H           3.32157777113201   -1.11326344892647   -1.31961256095435
H           2.18899066707733    0.07075208102345   -1.28039841527035
