    23
        -45.36171550  Gyration_radius:  2.47642038454 Dipole_moment: 1.797
 S          -0.81928810067832   -0.03766700872524   -0.23774913116893
O          -0.18377722181365    1.23387210354044   -0.47108835986888
O          -1.96265830142365   -0.23594712967041   -1.24178003130885
O           0.06575922944792   -1.17262248361166   -0.28812878550859
O          -1.53153404034000    0.01068489555207    1.11749686573073
O           1.41751369804489   -0.06048392018243    3.26400878021795
H           1.51643343274580    0.17104296138908    4.18901977438328
O          -0.31887763744374   -1.81055991633126    2.30672457727511
H           0.36790060139855   -1.26952871309501    2.77091038293742
H          -1.15035510632176   -0.77217382565616    1.70310045449102
H           0.08435420759908   -2.06556792443191    1.46346570079805
O          -0.59682163098095   -1.46287830088219   -2.96337313149048
H          -0.03889924962315   -0.67779170924673   -3.22677042346168
H          -0.09394912433585   -1.90678225436729   -2.26951162775954
H          -1.56306708247509   -0.76090554633482   -2.03236418322689
O           0.28872748428607    2.05483389467234    2.05134053924821
H          -0.62839162849782    2.06041203903394    2.33701149091202
H           1.10940539073574    0.75323439165202    2.80494553006069
H           0.25228640070319    1.88747218070807    1.09212340092115
N           0.82969170456666    0.77352874104899   -3.15653340567861
H           0.55061625652800    1.49611482985875   -3.80852588761276
H           1.83988647490163    0.70993198592754   -3.18243187303631
H           0.56504426294385    1.08178070914020   -2.22189064685832
