    23
        -45.36171547  Gyration_radius:  2.47656454736 Dipole_moment: 1.797
 S           0.81395179334568   -0.02406163085280   -0.25827570070886
O          -0.20885704063129    0.71007508018419   -0.95739554831343
O           0.35509041736498   -1.22146179129020    0.39808491064392
O           1.94997125353997   -0.37000228323293   -1.22996684608800
O           1.48802535138594    0.87780186142205    0.78058603472423
O          -1.50200397257854    1.93547677025673    2.58157828897234
H          -1.59517376101331    2.32921632518419    3.45065463278790
O           0.01532946310995    2.88117337084680    0.63227893629170
H          -0.60722081798701    2.67720942194420    1.37421565001213
H           0.99229864515015    1.80195767929373    0.76600569680566
H          -0.39398071512427    2.49714549770075   -0.15740712763354
O          -0.07440602802487   -0.31855288470683    2.90042153992493
H           0.82760440098841   -0.03471716720562    3.06943613077664
H          -1.07774036301586    1.05841470288238    2.71762419378427
H          -0.03416794802584   -0.78997606051435    2.04865742938142
O           0.48634917509247   -0.67672609155420   -3.25400607026390
H           0.04122789587760   -1.51017334869053   -2.93093963432800
H          -0.08887449870110    0.04278535549788   -2.96615883938386
H           1.50772795095688   -0.51368537165318   -2.14902351881081
N          -0.63690851748274   -2.67960812012668   -1.91276583702441
H          -1.64610926191216   -2.76171223493531   -1.91251025418942
H          -0.35946156458980   -2.29670808802699   -1.00999237936202
H          -0.25267186774992   -3.61387098239544   -1.98110169799902
