    23
        -45.36171544  Gyration_radius:  2.47664584169 Dipole_moment: 1.793
 S          -0.48422118687244    0.04037898670625   -0.70084052760801
O          -1.69820754104734   -0.79297343839417   -0.27894172636569
O          -0.45913274850103    1.24918748348005    0.08230412978966
O           0.71247354220827   -0.75653687204044   -0.61857436466038
O          -0.77123843487107    0.38182737135470   -2.16912916544578
O          -0.48810609865844   -1.87508322329455    2.98781320402328
H          -0.96771919080123   -2.23517525326149    3.73567791758120
O           1.63711382773306    0.55081643353766   -2.88035482544346
H           1.87774319106326   -0.17312820872369   -2.28928882636693
H           0.14622571333874    0.47015544286618   -2.62838162399266
H           1.83510979093362    1.38316048690270   -2.36556326904166
O          -0.54887832622829   -2.84876546921218    0.52989575560320
H          -0.49825859329986   -2.63491533011762    1.49513696529809
H          -1.34563302149054   -1.73344217331186    0.02494123526083
H           0.27667483690936   -2.51252709465868    0.15027449557010
O          -1.69069358521853    0.43810478431648    2.33770901805159
H          -1.17867557548220    0.87440725039747    1.63282006195962
H          -2.52234202698670    0.19296343749212    1.92417933723053
H          -0.85941890456523   -0.97878197045773    2.82478436908352
N           1.80797612840379    2.57516013502777   -1.16389957025046
H           1.58968560211300    3.51516911891316   -1.47004470747760
H           2.60985313670853    2.63087465407861   -0.54824127977221
H           1.01966946461427    2.23912345843131   -0.61227661303679
