    23
        -45.36171546  Gyration_radius:  2.47645460835 Dipole_moment: 1.796
 S           0.24840633648943   -0.07416392820737   -0.81316172459941
O           1.24748907381281    0.03950541540716   -1.97235178645831
O          -0.91964391407585   -0.85962739378264   -1.41725105018031
O           0.84364507099024   -0.82602272928427    0.26121635658668
O          -0.21870088237596    1.23788835821047   -0.44487707237461
O          -2.81891273138605   -1.41778415952714    1.64709810613132
H          -3.73523416538184   -1.67114532321944    1.77052189866272
O           3.31168961480037    0.14854188578940   -0.53636087171744
H           2.92540516058869   -0.47439476405934    0.09143574306470
H           2.18264034440608    0.07665010322733   -1.54288068200925
H           3.12146326515291    1.05206295293674   -0.15632307633471
O          -1.05032090772762   -2.74878074408678    0.20002194525737
H          -1.74624733071867   -2.39238111569248    0.80714391980476
H          -1.03554643804668   -1.73710165923699   -0.85353067173105
H          -0.20765265175206   -2.45683889657386    0.57869398147889
O          -2.82052519842851    0.74700742737881    0.05540955155048
H          -1.90942475059170    1.08383667022644   -0.02144890161436
H          -3.04053298809043    0.42540531670398   -0.82263922838525
H          -2.82984457602187   -0.56375817949105    1.15887379137917
N           2.29489171263241    2.40878522338262    0.42870903112812
H           2.31905937471312    2.57029466870583    1.42797857256207
H           1.34211362547701    2.14306908637048    0.18332925680828
H           2.49578296553750    3.28895177483085   -0.02960708900960
