    23
        -45.36171556  Gyration_radius:  2.47638254505 Dipole_moment: 1.799
 S          -0.59989207808611   -0.09514693743578   -0.59968798167354
O           0.68250690948972   -0.65623124392172   -0.93995076793299
O          -0.54610245845757    1.03978840300727    0.28520011233765
O          -1.35154924397640    0.29069423649190   -1.88067304159854
O          -1.47065761991205   -1.19609794297364    0.01349647072588
O           0.24093585490959   -1.49925875190168    3.21888380772130
H           0.21556315272789   -2.20212910237068    3.87030715625623
O           0.88296527435072   -2.64025839386576    0.87230595181668
H           0.58398000924976   -1.90121767011131    2.38910055802724
H           0.09963608065831   -3.12114792476456    0.59317479274181
H           1.00156094753996   -1.94261471559995    0.20252375652692
O          -0.55092687703350    2.67576046250543   -1.95189664492300
H          -0.58821028167341    2.73247365716939   -0.98919429868488
H           0.40021482443679    2.45643217101175   -2.16250034627297
H          -1.13932393296288    1.28400630045074   -2.05007839847253
O          -1.87142606280154   -0.22162667490487    2.27001809807351
H          -1.77122129743123   -0.86878079578059    0.96397205306908
H          -1.14434590394905   -0.67091353037369    2.76936271439905
H          -1.48849828721129    0.61122342316603    1.95623630823461
N           1.89061113619707    1.65609447474935   -2.22204565965456
H           2.25236196121899    1.44726129949493   -3.14436097176513
H           1.62361073127975    0.77366046320597   -1.78774964636817
H           2.64820715146608    2.04802878273931   -1.67644402258032
