    23
        -45.36171550  Gyration_radius:  2.47648854005 Dipole_moment: 1.797
 S           0.36394444853153    0.75888523139265    0.14329122698156
O          -0.59345355076939    1.36493521716604    1.17401275301937
O           0.90590271173246   -0.47826459827259    0.64299103014635
O          -0.32344629052204    0.65059104581454   -1.11801966712132
O           1.48530634553602    1.80055794524214    0.03300510540049
O          -2.79522199190141   -1.51143544727410    1.60380211377250
H          -3.67646243936259   -1.56624373834833    1.97721355846539
O           3.30238864228927    0.17339863376308   -0.58763582002819
H           2.34000049864806    1.27863881301864   -0.20667549447297
H           2.92534730784195   -0.49429476631555   -0.00165294530048
H           2.93999342682680   -0.04102969817237   -1.49302240987297
O          -0.68155351153736   -0.49601247819677    2.82646584834737
H          -1.49540516467159   -0.95819118424655    2.50399624939289
H           0.05422385407327   -0.91923314663572    2.35933228380878
H          -0.66308065730262    0.69092316870634    1.97527294473257
O          -2.87726400417739    0.38070265686775   -0.30210954891480
H          -2.85649165326646   -0.90093917697653    0.83481254128851
H          -2.93081962520672    1.21871198907313    0.16441138433970
H          -2.01879103494949    0.40373954632284   -0.76244155945064
N           1.86389128106818   -0.31631000964886   -2.77037449311037
H           2.00191138162195    0.24366383575580   -3.60248307644911
H           0.99863854057319   -0.00687521439539   -2.32969084828491
H           1.73044146492797   -1.27591862465033   -3.06450117669997
