    23
        -45.36171549  Gyration_radius:  2.47655679726 Dipole_moment: 1.798
 S          -0.84374122972741    0.05480723654840    0.11584204681784
O          -0.14435951270197    0.78385155335009   -0.91035784041244
O          -0.08441332300062   -0.17237855014807    1.31873417001486
O          -2.15084142052260    0.78173101715327    0.45935214155697
O          -1.31395419983800   -1.29672090429201   -0.43077363961338
O           1.90289838600433   -2.52792164640069   -1.63009519470287
H           2.17963214802746   -3.41740914904569   -1.85645602588240
O          -1.26259908592067    3.10947706152439    0.10040605939341
H          -1.96036191708206    1.78635629340089    0.33996909738545
H          -0.65204320905422    3.10727155360440    0.89036072566805
H          -0.72021833376171    2.80431299324591   -0.63722055251280
O           0.89876784394489   -2.63891084417188    0.85968193525402
H           0.68533225559934   -1.73537802485706    1.15537835841824
H           0.04942987784436   -3.08040762451660    0.77939886077452
H           1.64088314652097   -2.55094892403251   -0.68213035646853
O          -0.19058609638093   -1.27743292910063   -2.65323451890383
H          -0.95602107899524   -1.38229767478341   -1.41344847592676
H           0.03202673693744   -0.34535444186653   -2.51050459006707
H           0.63046329596296   -1.77973561900707   -2.42175649596138
N           0.40753444597450    2.58330072151942    2.10257553545698
H           0.12711211919606    2.77343699974325    3.05663640493168
H           1.38167548133236    2.84365942080362    2.01090494464287
H           0.34338365966957    1.57669149134310    1.95673741013126
