    23
        -45.36171548  Gyration_radius:  2.47663885394 Dipole_moment: 1.798
 S           0.55653924381467   -0.62693164524697    0.16014039938569
O          -0.24549229818171   -1.86099710819872   -0.26469027740462
O           1.85453842617229   -1.21594148366648    0.72843679842238
O           0.85177201562331    0.15786278809937   -1.01122976213099
O          -0.14457832371392    0.08133829152896    1.19969884883525
O          -3.39657366245997   -0.19716033666484   -1.04415221129473
H          -4.14749969567909   -0.50018220654898   -1.55732869238759
O           2.31227971753888    0.65842364910923    2.34477353492783
H           2.17893401378696   -0.55451348693877    1.44769059535421
H           2.52086402988848    1.34296371533797    1.64850484664243
H           1.36838937659300    0.75744826169247    2.51985209761820
O          -1.22713090447290   -0.47461671276714   -2.60489206064700
H          -0.45712620606801   -0.09339564798837   -2.14538755996138
H          -1.05140033002942   -1.41832324219385   -2.64174367534942
H          -2.62513013970924   -0.19511336403346   -1.65464898538667
O          -2.34433202901332   -1.47406367209069    1.01895284922745
H          -1.14676255094674   -1.85255808053397    0.27226424316235
H          -1.89605421058139   -0.76230995761891    1.49967038287533
H          -2.87823985440458   -1.02035164887004    0.31967020166567
N           2.51216236840915    2.21526548998762    0.19754191935293
H           2.06064937343792    3.12153566185185    0.20469411825107
H           1.93944249562893    1.59113193222950   -0.36911777324891
H           3.40474915438440    2.32048878354189   -0.26869982792923
