    23
        -45.36262119  Gyration_radius:  2.44839943117 Dipole_moment: 2.529
 S          -0.26698008491715    0.64063187026396    0.79930591839204
O          -0.68075999031338    0.67883210996127   -0.68694172136500
O           0.82036491293741    1.55337408171933    1.01556278695103
O          -1.49138008301049    1.15308361312160    1.55711409253877
O          -0.01035627467092   -0.73037810045361    1.15675335626744
O           2.87310172118959    0.25295372466680   -1.82161829601004
H           3.79581683803976    0.40403129628939   -2.03303477652000
O           1.08176405543205    2.21310154588072   -1.60962658309125
H          -0.05443663391467    1.33086764919343   -1.18179472475464
H           1.29180468597458    2.49399744218557   -0.70837696046358
H           1.76334588771094    1.53853574342570   -1.84597359587444
O           2.68036589121389   -0.39164442765031    0.76982748245917
H           1.92345839112878   -0.96859870149496    0.93735018647129
H           2.85364270808817   -0.08692025141286   -0.89711177384947
H           2.36187423506291    0.47519451190154    1.06208144923465
O          -3.29024606358479   -0.63301525422160    1.45266821069202
H          -2.26360278249639    0.47861061815488    1.51373693466523
H          -2.94885109596974   -1.18549403076365    0.68576144100261
H          -3.16802257231437   -1.16325651594943    2.24361961565623
N          -2.03139932435219   -1.95454901751457   -0.44327767863568
H          -1.14846352228707   -1.76937415109769    0.02924464821451
H          -2.03034138965653   -1.39832775634718   -1.28931499721119
H          -2.06069950928899   -2.93165599985880   -0.70595500477096
