    23
        -45.36171548  Gyration_radius:  2.47678794007 Dipole_moment: 1.803
 S          -0.55236654391648   -0.63218683326924    0.14905933277915
O           0.38684157763039   -0.89514172774316   -0.91113726657756
O          -0.87856795731348    0.75818295134083    0.33447566122779
O          -1.84006063128503   -1.43160687772970   -0.09087063154703
O           0.00077775409218   -1.21823592750283    1.45166739753876
O           2.66968242331432    1.19610573677615    2.03199918800651
H           3.44062010467061    1.13927576141243    2.59891438146744
O           0.16839664901770    0.85529349400122    2.82084017356095
H          -0.33193398051884    1.32381841449786    2.13610493618362
H           0.05426793466689   -0.43857435316341    2.15170441263806
H           1.11692729424610    1.08186105798549    2.65125323909248
O           2.70677577277001   -0.98111575412204    0.45703774207536
H           2.74607179676798    0.46004220635037    1.38387647470094
H           2.47017391897282   -1.71836179884023    1.02556358394196
H           1.98089581718341   -0.91966764861934   -0.19004008313033
O          -3.04914996953099    0.38282665940954   -1.34778861428596
H          -2.46729858775642    0.34900397096876   -2.15862860235332
H          -2.47736668023760   -0.80269521918759   -0.59964880254015
H          -2.65384748604132    1.05793414675940   -0.78266255928354
N          -1.11770098187581    0.16147750852724   -3.16247614133730
H          -1.20951869536684   -0.50514081724172   -3.91896027157452
H          -0.46040746325740   -0.22622295162123   -2.48701726077803
H          -0.70321205617503    1.00312801093159   -3.54326629984269
