    23
        -45.36171545  Gyration_radius:  2.47681479158 Dipole_moment: 1.799
 S           0.04590762559001   -0.71965268823140    0.45603770790157
O           0.76267087233757   -1.93730329478370    1.05469709860231
O           0.27611790286654   -0.67766625902386   -0.96490603501396
O          -1.43425168544466   -0.99583440335147    0.73817541303029
O           0.43725612536872    0.47121991131444    1.16587721423286
O          -2.86119279601113    1.72505652215902   -1.22970059524021
H          -3.73621385648165    2.11578744756426   -1.20399925080703
O           2.72866298714467   -1.88658247413589   -0.51594160465239
H           1.61483912604311   -2.07306296917473    0.49291545798420
H           2.15893533343777   -1.60562450756557   -1.24253393350807
H           3.12437015363244   -1.04395408169370   -0.15492376829456
O          -2.34915532945715   -0.84667640897683   -1.57341407112580
H          -1.44116748417478   -0.83630681924220   -1.91117332539328
H          -1.93132871778747   -1.02856421770275   -0.18505428641639
H          -2.63725251662717    0.10035682236703   -1.57110885117118
O          -1.90087366882013    1.80658652918678    1.27847609900643
H          -0.97719301480509    1.49655931132022    1.27371722384099
H          -2.47062032066661    1.85835524536591   -0.33673015419324
H          -2.38525172364865    1.13459770046563    1.76489881877138
N           3.27623349878221    0.49206242478108    0.54045093253177
H           3.53258771818184    1.25587368080897   -0.07272022622373
H           3.85665989259289    0.55408178141296    1.36766721100415
H           2.31025989795133    0.64069076712144    0.82929293523447
