    23
        -45.36171547  Gyration_radius:  2.47661496837 Dipole_moment: 1.796
 S          -0.50246212621828    0.66742215342707    0.17430168775991
O          -0.98430361763145   -0.52992082403007   -0.46448071738525
O          -0.65233007856537    0.54642832118630    1.69392390228181
O           0.86458064497001    1.00508274601157   -0.12958298380790
O          -1.41807548777894    1.84442381275220   -0.18806326844234
O           1.16331036461565   -2.58424400147108    2.15384843427414
H           1.53777859765409   -2.97187232255183    2.94663830181676
O          -1.95288177696083    1.05837163512572   -2.51867514141367
H          -1.95712002551502    0.13957555990855   -2.22336774674489
H          -1.75304579740630    1.66374084813724   -1.14469326146766
H          -1.03741593452334    1.20848709878919   -2.88775363206465
O           2.15440180142230   -0.09395205954526    1.96544519030858
H           1.70866959911362    0.41648075182022    2.64630292991398
H           1.61304209560833   -1.71832774103370    2.02841583516135
H           1.86151192417397    0.30001947014546    1.12377816876347
O          -1.35702304412485   -1.83569427847175    1.86899858517613
H          -0.47403099581352   -2.25254714896271    2.03190606411346
H          -1.01957601822154   -0.41465995714425    1.89988287312587
H          -1.47294692111135   -1.85143757894287    0.90722227316141
N           0.64658960472954    1.33485472589102   -3.00960571563074
H           1.00798171893585    2.22521075735162   -3.32858321406625
H           1.13011351453393    0.60634965153451   -3.52014854279675
H           0.89323194811301    1.23620840005678   -2.02571001201037
