    23
        -45.36171538  Gyration_radius:  2.47657084372 Dipole_moment: 1.796
 S           0.45266276054405    0.62882831244103   -0.36117884310047
O           0.61746365677803    0.50841479362367    1.06481944906145
O           1.71208466398804    1.25312042802868   -0.97621805311941
O           0.14819423528939   -0.60468070940367   -1.03915739866676
O          -0.63993852737297    1.66481119058565   -0.64359372762603
O          -3.51996892651339   -0.29959680672258    0.43080069803906
H          -4.40956243663115   -0.02195507653780    0.65557655242390
O          -1.84579811171467    1.16541835191860    1.93758369131372
H          -1.86141365973004    2.04940543988188    1.56198602111490
H          -2.91838540786521    0.15680940978764    1.06136605876959
H          -0.93535751490568    0.84837672310765    1.79630904583876
O           2.86371618223698   -0.92353352153777   -1.49481003928440
H           2.01983254849839   -1.33429823854983   -1.71954793587377
H           2.30800140049219    0.46635397724827   -1.27073590478984
H           3.03148948694435   -1.17809036866784   -0.54388106978814
O          -2.28718534189223    0.23586742338900   -1.84714734306567
H          -2.87046483779465   -0.01147333097567   -1.08665753336952
H          -1.37977306670533    1.19472060703540   -1.21961761684913
H          -1.61743191441928   -0.46264697220210   -1.89328685450421
N           2.85489670319642   -1.34568667947274    1.13068326570159
H           2.06563050335926   -0.71828320898572    1.27910247587774
H           3.62293401749733   -1.01292387176370    1.70034482686709
H           2.58837358672906   -2.25895787224937    1.47726023504673
