    23
        -45.36171545  Gyration_radius:  2.47663254373 Dipole_moment: 1.802
 S           0.09187831358947    0.84525515749264   -0.05686027233987
O           0.19498212959273   -0.03659669948709   -1.19077216212671
O          -1.35536412911667    1.31943213350117    0.10743802431827
O           0.53634924947251    0.27826734986238    1.19059837886923
O           0.86733965589331    2.13819638258812   -0.34263836490624
O          -2.97770156996734   -1.94181509042667    0.20889155514626
H          -3.85066934145279   -2.18816600359353    0.51910516934675
O          -1.79172738525004   -0.60861854274600    2.21838397358691
H          -2.22654284036571    0.24710011742606    2.25559151665794
H          -2.50725398442993   -1.55422909694626    0.98099783559712
H          -0.87021904946074   -0.41169730162172    1.97065171601996
O           2.68694963512572    1.06045243727029   -1.70692151655156
H           1.66793888035587    1.86802764388448   -0.93138636422526
H           3.10656324784467    0.56905405044819   -0.94566116819108
H           2.05360319246062    0.43972522938722   -2.08778093438438
O          -2.47086498489084   -0.09344648528481   -1.61367510177248
H          -1.93099204392970    0.83848302694821   -0.62594915520291
H          -1.59601671172973   -0.35470694612430   -1.93777321354788
H          -2.76857553391931   -0.84061232878223   -1.03671709198439
N           3.30798915286931   -0.27229858825319    0.50920395647802
H           2.37068664768694   -0.16517789402249    0.89473285387284
H           3.96004956664594    0.12760149826541    1.17252485396436
H           3.50159790282680   -1.26423005985193    0.44801550130474
