    23
        -45.36171533  Gyration_radius:  2.47678314502 Dipole_moment: 1.792
 S          -0.02497143194477   -0.74066337853313    0.42355894859585
O           0.31910591837963   -0.64883042624771   -0.97176693314728
O          -1.53455037482493   -0.95073812302193    0.57752898461258
O           0.58145173147730   -2.01941348472286    1.01697568219727
O           0.36668944822987    0.39579335149202    1.21745313360481
O          -2.66783133292745    1.92970417195178   -1.35498406047500
H          -3.52373543323196    2.36104074036069   -1.37562239302744
O          -1.90540416685307    1.84421081150482    1.21985955023478
H          -1.00023685617307    1.48697151014438    1.26936177754241
H          -2.34296111324613    2.00087193352875   -0.42909796902285
H          -2.45820589463328    1.17654240577725    1.63383070303724
O          -2.25504221664133   -0.64641886824516   -1.78686546305368
H          -1.95820054650615   -0.91427013231462   -0.38160122560115
H          -2.49545864239463    0.31352144509063   -1.75930303953902
H          -1.32369348100773   -0.66902046821454   -2.05280910417593
O           2.66508052692200   -2.00816383535003   -0.39493383945745
H           2.17033097984708   -1.66868004742022   -1.15076401725144
H           3.07108812576259   -1.20241605803467    0.03286748367791
H           1.46704953850899   -2.17665035517286    0.51582396529786
N           3.24228691787150    0.29431411440729    0.80441375671244
H           2.26562793832154    0.48044104283838    1.02821687378061
H           3.58007689061727    1.06711944582847    0.24428158055878
H           3.76150347447408    0.29473420433027    1.67357557495364
