    23
        -45.36171555  Gyration_radius:  2.476524447 Dipole_moment: 1.798
 S          -0.42128515910420    0.42233702307833   -0.61064081537367
O          -0.41992199067402    1.84779987452159   -0.05001959815955
O          -1.26644908934480    0.53489073710785   -1.88642396971665
O           0.92994214420471    0.05974982824235   -0.95415984531886
O          -1.06811960005677   -0.47029898540410    0.31604572633200
O           1.15554460017670    1.15072254068393    3.16429668281829
H           1.57666083029557    1.74411888586093    3.78844276015916
O          -1.30690147517352    1.41239760930187    2.23591342455481
H          -0.45109879721684    1.33598812004695    2.72751728276933
H          -0.84595442750023    1.81092136811183    0.90820706940827
H          -1.52323406539752    0.50969482312622    1.95837071558537
O          -2.10877920225435   -1.83665030371028   -1.85920505476729
H          -1.22751662805156   -2.25872322192193   -2.06512606915524
H          -2.16135681604803   -1.82256897560741   -0.89567887412287
H          -1.71429562455916   -0.38329651578371   -2.01620431582721
O           2.33438348526173    1.56403277027065    0.78533905690720
H           1.66290921819011    1.22422132083398    2.32466737072107
H           1.98876852085307    0.91733928358010    0.14366863555857
H           2.01095599349298    2.41484851304181    0.47827085772213
N           0.43822552987556   -2.55091526279691   -2.13419826685281
H           0.84063376824605   -2.64429687196501   -3.05855918616116
H           0.79919800926121   -3.30601938472174   -1.56432316595745
H           0.77769078551169   -1.67629315589025   -1.73620041112413
