    23
        -45.36171529  Gyration_radius:  2.47660660867 Dipole_moment: 1.794
 S          -0.07006110256134   -0.84954784227787   -0.06835295604554
O          -0.66045239621313   -2.22375048994206    0.27383715205403
O          -1.01099797908994   -0.10079542624697   -0.86152425469345
O           0.35399476390126   -0.19431707802062    1.14194202049382
O           1.14719541340255   -1.18431765167111   -0.93619256043355
O           2.59357846923407    2.15906679255699   -1.12980165915449
H           3.24243158235973    2.51802795730903   -1.73736681119751
O           2.92839827299020   -0.00876246264476    0.34817247079477
H           1.99439395115941   -0.79468061311905   -0.45610033004556
H           2.94593949868138    0.84695227340698   -0.14898993561512
H           2.29327354084127    0.12634691778010    1.06718395376096
O          -1.66770486661984   -1.54139093073823    2.47684064950628
H          -2.37038050016503   -0.94824875986556    2.08741296135393
H          -1.11242133294242   -2.12099106217123    1.19356425725033
H          -0.91928541785390   -0.95925875321985    2.65651271233787
O           0.62915638689529    1.10307862938617   -2.62852900352233
H           0.99226726529912    0.29754608229227   -3.00538067850005
H          -0.08905857278138    0.80456924366142   -2.04165475802454
H           1.82716863828477    1.87523788423335   -1.67736196996623
N          -3.17593268118037    0.13223508522647    1.06409024319687
H          -3.29427964640904    1.08123916286941    1.39674396413348
H          -4.06597391536437   -0.17637637326273    0.69297428871089
H          -2.51124937187120    0.15813740443774    0.29198023357946
