    23
        -45.36171553  Gyration_radius:  2.47645979617 Dipole_moment: 1.799
 S          -0.28122606623844   -0.73342386523037   -0.33291230152425
O          -1.66675904512078   -0.84702968407395    0.31047817127890
O           0.73203089399163   -0.67167862928688    0.68851171526044
O          -0.13693983058008   -2.04433906286244   -1.11745050318748
O          -0.28601576859674    0.38081708370022   -1.24597175993884
O          -1.48497723486237    2.07441593497086    2.48177254652978
H          -2.18299198208818    2.55929120468317    2.92523977743186
O           2.37253431090765   -2.16848498535572   -0.97056413327755
H           0.87024148511229   -2.25803706407079   -1.13608140570711
H           2.54722594097041   -1.38698568610270   -1.56727440636933
H           2.35387369251587   -1.80335953586034   -0.07744105704809
O          -2.14717636663265    1.97186928971189   -0.12052480834216
H          -1.41829507867520    1.55756505182302   -0.61696950506282
H          -2.87417541374203    1.34682092950931   -0.18008450523205
H          -1.67310052270308    2.13519773166655    1.51809026623457
O          -1.05796900116246   -0.52624295342428    2.70403511650995
H          -1.22399506240784    0.44653305128002    2.78112918614674
H          -1.53755960855086   -0.79637567677502    1.35035435238194
H          -0.12470613463000   -0.60688939063775    2.45658249200184
N           2.38511603061039    0.10042696705108   -2.35743232150881
H           2.38721525674146    0.07497595660816   -3.36957978520821
H           3.00427041419238    0.84728740026645   -2.06750918292111
H           1.44337907092452    0.34764591240706   -2.05639795848684
