    23
        -45.36171543  Gyration_radius:  2.47619083882 Dipole_moment: 1.803
 S           0.47094260754601   -0.71263178027365    0.03157283501505
O           1.77028825903277   -1.50717330941829    0.21957230447624
O          -0.61207191739496   -1.79505047011766   -0.01350632296106
O           0.26348201139683    0.14392825458752    1.17037748200054
O           0.49717769439454   -0.03253637778349   -1.23809582129032
O          -3.53580574589459    0.37965475486704    0.08815265180849
H          -4.45004636023008    0.20120249204857   -0.13845561435829
O           3.01814321043070    0.30622413707498    1.44007171897613
H           2.41052986556515   -0.89123178123865    0.74010633099868
H           3.09583145560395    0.92061721392891    0.65663339639925
H           2.21106513198071    0.57852543527107    1.89364509060254
O          -2.05782419924473   -0.32487687066709   -2.04263532304895
H          -1.12979317398713   -0.07625635559546   -1.88036470152806
H          -2.05855353977675   -1.28540051513569   -2.05464129164894
H          -3.01154801478376    0.22641185662961   -0.73001765363044
O          -2.09301972716523   -0.99911601362965    1.82414114756448
H          -2.74472918706929   -0.48008232599467    1.28981297756425
H          -1.27759375092046   -1.60947455562628    0.77571475375223
H          -1.40581317758671   -0.36397957806654    2.07527126591907
N           2.75799209959356    1.73683694857836   -0.78645043126227
H           1.94392379255187    1.20524968862065   -1.09198747106200
H           3.45820104381024    1.67165199749417   -1.51484504668589
H           2.47922161215414    2.70750716446278   -0.71407227762072
