    23
        -45.36171544  Gyration_radius:  2.4766341654 Dipole_moment: 1.797
 S           0.45311396219086   -0.29293998691639    0.66258011682758
O           0.17336645442502   -1.08400831085799   -0.50784761533183
O           1.77540030621901    0.45901750165766    0.48167199321969
O          -0.57432612923158    0.65547786770492    1.00917924824837
O           0.72366098379850   -1.22068218551119    1.85464038698462
O           1.00375326788380    2.13104609093722   -2.67012301133230
H           1.42335076895809    2.88476477305065   -3.08821848275587
O           0.35314619046182    2.89058082304673   -0.17615328664011
H           0.66754987818670    2.44633296800499   -1.80104374282956
H          -0.15157192285667    2.17540577183137    0.25178136483904
H           1.18185717437754    2.93298714726987    0.30782147723599
O           2.25043978658437   -0.07208808318613   -1.90468016790626
H           1.86012473385201    0.73230929432689   -2.32959839866801
H           2.12498450315546    0.25541501263763   -0.48637649272358
H           1.53267104519669   -0.72245087922380   -1.88219600588467
O          -0.89089637399500   -3.02273471878254    1.16158823996570
H          -0.67587074721093   -2.87869324481867    0.23179941299076
H           0.13178760488935   -2.05120685325464    1.71177671153594
H          -1.71664821039255   -2.48508053778294    1.32357038493258
N          -2.78556486669687   -1.17865045930963    1.44915808205077
H          -3.22929258128393   -1.04610696632472    2.34948011439742
H          -3.50216401956426   -1.09729930955892    0.73852904102554
H          -2.12887177895647   -0.41139571494376    1.31266063982667
