    23
        -45.36171530  Gyration_radius:  2.47661348407 Dipole_moment: 1.804
 S          -0.60876855480928   -0.56521656527987    0.20235276084931
O          -0.84001334420199    0.57564628745130   -0.64546288737558
O          -0.19554478715410   -1.77226446524561   -0.64555959817910
O           0.38019938599056   -0.36272439384791    1.23008252863044
O          -1.93355128710711   -1.00547821130991    0.83943439299262
O           2.60389312395621   -0.24699167067419   -2.41662277476113
H           3.32688559488803   -0.65463592324989   -2.89630343610560
O           2.58499343092288   -1.34804151580551    0.03497934704879
H           2.66902044803434   -0.56834214019406   -1.48923442702260
H           1.91255338952885   -0.90178020420816    0.58096230210257
H           2.25526387517567   -2.24258719328581   -0.08231552697964
O           0.03381716393530   -0.67758814902591   -2.87122059379217
H          -0.13188730316395   -1.45182832687016   -1.64209946539440
H          -0.37927314829908    0.11647330501610   -2.50037768696439
H           1.00641604129513   -0.49466030772710   -2.85985038764402
O          -2.91157337793288    1.30433534066687    1.04693829148733
H          -2.48420201577004   -0.14674820398814    0.97973378424722
H          -2.27618022160364    1.62033698505536    1.74954739347632
H          -2.51021079316449    1.56669265760710    0.20942884977336
N          -0.87386840196726    1.82594180978647    2.67422096574385
H          -0.29910897406476    1.08645200599961    2.27249815289083
H          -0.95725069110767    1.64509220173794    3.66691820699799
H          -0.37160956337791    2.69791665738769    2.56194980796940
