    23
        -45.36171554  Gyration_radius:  2.47671605118 Dipole_moment: 1.797
 S          -0.71195079676928   -0.14771505242729    0.44616054239342
O           0.20430556108991   -1.19034947696271    0.06248056489127
O          -1.78635807471103    0.02738898170328   -0.63158260668319
O          -1.50595840791342   -0.59388652455055    1.68109458462136
O          -0.09868388176880    1.13101193754510    0.69918871737380
O           0.41121274703073    0.53845589458671   -3.49582680091229
H           0.22318538152604    0.90800994797845   -4.36017644712860
O          -0.88301216300441   -1.48619163421894   -2.39096842050645
H          -1.55368943823148   -0.62573093168822   -1.41897892755571
H          -0.38796184287016   -0.82254341668249   -2.93350611762846
H          -0.24059588069978   -1.81917215244865   -1.74667262228260
O          -0.41421026996090    2.34498496644609   -1.68582865601991
H           0.21203079553576    1.24568017559769   -2.84170256914035
H          -1.37400387155577    2.30843837475641   -1.69984845455165
H          -0.16394707037539    2.03894315829518   -0.79529297438265
O           0.35710305809412   -1.91971368577658    2.73190669482534
H           0.92826511842662   -1.13152515571756    2.95502135263052
H          -0.86935717036364   -1.18615667873236    2.23315685917883
H           0.65975983912592   -2.21106239527006    1.86298944556639
N           1.66739607706479    0.38939115665461    2.88556139930848
H           1.13024248296916    0.80149359385762    2.12384919844628
H           2.64424547886755    0.41803233991164    2.62079974973190
H           1.55198232850463    0.98221656715036    3.69817545784725
