    23
        -45.36171539  Gyration_radius:  2.47667862709 Dipole_moment: 1.790
 S          -0.27803784661952    0.59669157392549   -0.54110161722568
O           1.09637238409384    0.49311774147300   -0.12378309945654
O          -1.04292824215805    1.52932309700756    0.40305761257474
O          -0.34835696080354    1.31426841047766   -1.89571041988380
O          -0.98076070606998   -0.65834812743424   -0.62004001722878
O          -0.24641992221698   -0.13289857541954    3.55066487247139
H          -0.66628429422349   -0.06162662255515    4.40955138627398
O          -2.18397848538768   -0.73733584826108    1.78970808163919
H          -1.78121780972904   -0.89880058044242    0.91727402636836
H          -0.93519182658037   -0.46314643617930    2.93078568032121
H          -2.69705177844046    0.06746201716399    1.68063068391812
O           0.69731653326718    1.89914826237071    2.14569121644156
H          -0.38133776422431    1.82067035035376    1.16352223520776
H           0.42610399700124    1.20151496161831    2.79350297898080
H           1.34259480795852    1.47033319521619    1.56392928112812
O           1.81390364285865    0.39563802276483   -2.79857864364973
H           0.50723988347182    1.05164605392532   -2.40507918877607
H           2.21548694193152    0.43856914694938   -1.92205876089559
H           1.49124794440534   -0.54475886431478   -2.89075993788551
N           0.65551114535597   -1.99175564667211   -2.61926051818455
H           0.11063649325809   -2.34652583986309   -3.39537492214393
H           0.00307621495197   -1.67703207322887   -1.90234750466478
H           1.18207564790574   -2.76615420885262   -2.23422344530593
