    23
        -45.36171543  Gyration_radius:  2.47676603897 Dipole_moment: 1.793
 S          -0.66416343125748    0.53426744453417    0.04422938517790
O          -0.29694912492291   -0.16203890517325   -1.16158754768603
O           0.04298423615268    1.89200263639004    0.10028267858907
O          -2.15289045227748    0.90278278436978   -0.01093260873160
O          -0.38646612836502   -0.18182070599574    1.26293704390340
O           3.47309571802232    0.71925161063867   -0.31461619393369
H           4.30358140023225    1.16127689707870   -0.13031431130278
O          -2.88729069460703   -1.14060082352875   -1.28401799880461
H          -2.61608419269488    0.14866707604150   -0.53706404963468
H          -2.07135652896546   -1.13185610614014   -1.79940741913656
H          -2.71861129111999   -1.78670976903350   -0.54159858183396
O           1.55518647779903    1.67218086290097   -1.86643751663321
H           0.67377250107704    1.95475129137297   -0.73552071444990
H           2.37082112698319    1.35105039853413   -1.40655338960295
H           1.07407111175866    0.87104204604709   -2.12204998378713
O           2.01306661303408    0.84200943042356    1.93782999098005
H           1.19467371932590    0.32815888982583    1.81311251614449
H           2.98968539920150    0.66754926115837    0.54057649371568
H           1.72350047452822    1.75495181197413    2.01155827962832
N          -2.04439046868814   -2.52861175114157    0.82226095775569
H          -1.49647499607802   -3.36624230763617    0.66952715136963
H          -2.67540672133545   -2.71051490757794    1.59284727770145
H          -1.40435477782993   -1.79154715501763    1.11493854052648
