    23
        -45.36171550  Gyration_radius:  2.47666302194 Dipole_moment: 1.796
 S          -0.24011896280363    0.81959274628957   -0.00435644489396
O          -1.72220609418659    0.70313468429971    0.36477409161942
O          -0.04270193232579    0.24413023361368   -1.31015807700887
O           0.00054376775524    2.33399076208715   -0.06506754760658
O           0.57270479806705    0.24576945129856    1.03674843417782
O          -1.83998284454303   -2.89577557366429    0.94982507987607
H          -2.59052751965738   -3.49066707670876    0.99212412791510
O          -2.02562051967429   -1.57906191639271   -1.38509714501751
H          -1.23227536504354   -1.02524926419001   -1.50019593588238
H          -1.84959496277601   -2.49949216952467    0.04947058889565
H          -2.74898097922508   -0.95633602584335   -1.27693008149282
O           2.43583192965688    2.24307553566132    0.56458461270385
H           2.74221226726311    1.80968563610929   -0.28123680687003
H           0.98622740106382    2.47872410207594    0.19486838360332
H           2.26702853315142    1.51361734938828    1.17348304267197
O          -1.54763713274439   -0.70926915195135    2.40861256085408
H          -1.78225254580394    0.17532129859946    1.26942121959775
H          -1.69174105985621   -1.59968873580408    2.00082011083488
H          -0.58825533945887   -0.57480558225174    2.39543519887066
N           2.77587309583295    0.85392453837378   -1.67769375365809
H           3.35660610331791    0.02479678592675   -1.65645781908497
H           2.96099627619777    1.33639355234844   -2.54834618318494
H           1.80387107570315    0.54818882023336   -1.69462766701896
