    23
        -45.36171553  Gyration_radius:  2.47644738409 Dipole_moment: 1.802
 S           0.37856171828402   -0.35141632436809   -0.67992922448239
O           1.49467756457623   -0.49665191677772   -1.72290474120973
O           0.94916246543836   -0.38801186135191    0.64178476225843
O          -0.40378255595171    0.82365166159488   -0.96706050239719
O          -0.49343721263288   -1.58997345636767   -0.90790759641810
O          -2.66957745876876   -1.24320544181852    1.99779672836013
H          -3.52015601619422   -1.64279899040683    2.18714734941678
O          -0.46328140078369   -2.56573567980221    1.38320046515133
H          -1.30194256916556   -2.17454675321907    1.73454983423312
H          -0.50438091830654   -2.13783549472183   -0.01315184117832
H           0.23198240848889   -1.93435551521570    1.62127970741866
O          -2.88876305706547   -0.05139796922349   -0.40053710396332
H          -2.78678593047868   -0.71588602854424    1.17561187106948
H          -2.06815043155538    0.44015687372358   -0.58592274908790
H          -2.90191194827670   -0.76348351084536   -1.04517013672803
O           3.24602980659025    0.74940763030586   -0.41311333574512
H           2.32422563297748   -0.03775301750071   -1.32123363238183
H           2.81388327249917    1.64595666081495   -0.49318064706505
H           2.91000548950325    0.38161147097754    0.41340758058724
N           1.64131808398522    2.86021628591167   -0.62155425127591
H           1.71817609759440    3.47629269762153   -1.42132799477122
H           1.47936804909408    3.43613004656008    0.19531307538547
H           0.81477889018447    2.27962862270499   -0.75709761722885
