    23
        -45.35981435  Gyration_radius:  2.32612751975 Dipole_moment: 5.670
 S          -0.37125600074042    2.05565515481777   -0.49687268448039
O          -0.59850711618968    3.25116959629992   -1.21505578457616
O           0.28590344612787    2.32787976326817    0.88721894297181
O          -1.50757670982925    1.19108004647183   -0.27694747765646
O           0.73266452771267    1.23233389951643   -1.22373495091852
O           0.05042458174808   -1.45238223008369    1.72897143812848
H           0.10200581343884   -2.32407752088519    2.12238513590530
O          -1.18750960983113    0.87660904673414    2.36864441259985
H          -0.76196526018413   -0.00349087778980    2.34059021998974
H          -0.26339022707639    1.82818145222092    1.57964744018242
H          -1.84704504222283    0.86608972557148    1.66011202831717
O           1.99058365877804    0.04423848227792    0.67329977527479
H           1.35705570234156   -0.57598809106305    1.10046021519032
H           1.25978793271245    0.72454177544135   -0.52951898012489
H           2.11695863383108    0.77499089554005    1.28491961101660
O          -1.29779559361219   -1.49875355760959   -0.44710477459919
H          -0.68600359918349   -1.62537072339139   -1.21034774978165
H          -0.49997652496248   -1.55019395971352    0.88207145166736
H          -1.55259443582520   -0.55934340470731   -0.48444800663781
N           0.49040950523948   -1.47699320506721   -2.49698678014314
H           1.38626197250668   -1.93076201080609   -2.36943052702788
H           0.64472966766880   -0.47446842843093   -2.45191145643056
H           0.15683467754762   -1.70094581861682   -3.42596150886977
