    23
        -45.36399005  Gyration_radius:  2.4161369039 Dipole_moment: 2.006
 S           0.00704603241223   -0.31665323309081   -1.05153559282311
O           1.04002228660175   -0.61693229753379   -1.98851375360090
O           0.13077568068071   -1.29314155129875    0.13058263478739
O           0.26389161110569    1.07755205123024   -0.41869619811838
O          -1.34256872786761   -0.30749476022801   -1.53521239348256
O          -1.66863749659326    1.86127404787051    1.48147597425675
H          -0.93968316652889    1.88747357266534    0.84792114150028
O           2.76782577868823    1.19584423346843   -0.17587206067975
H           2.98808274591444    0.21961278214140   -0.06029995347079
H           3.07912629176825    1.43162974325493   -1.05321686846373
H           1.28014668095061    1.17537809441286   -0.27706059257780
O          -3.46316833677854    0.45240987628396   -0.15377496108207
H          -4.23724314758406    0.48761500857605   -0.71694870978629
H          -2.71466157300313    0.19780387510481   -0.73481406258743
H          -2.47424064395434    1.75081638413052    0.95535929845687
O          -1.76432487702681   -0.77484532975415    1.70960735593285
H          -2.58160469160570   -0.80210577346385    1.19233058546192
H          -0.64052268772329   -1.13213818991667    0.79836499900105
H          -1.64120674134438    0.18860451303074    1.89571318316946
N           3.05032037467520   -1.41486270611223   -0.15347717758866
H           2.41501649025360   -1.45329091727049   -0.94909446402120
H           2.57213182156463   -1.85094701065425    0.62491693382294
H           3.87347627542768   -1.96360239279104   -0.36775530812162
