    23
        -45.36265660  Gyration_radius:  2.45508772092 Dipole_moment: 3.934
 S           0.70257858519981   -0.72338313491938   -0.47458973441335
O           0.95118515613190   -0.81078683775386    0.94297019380980
O           2.02102818943888   -0.45138372826729   -1.20127224863318
O           0.02889693741576   -1.83569107284758   -1.06958416796028
O          -0.13440996205754    0.55915491128466   -0.72135697025028
O          -3.28480032108805   -0.91375589962364    0.39940924985435
H          -3.49948140709089   -0.22519728365589    1.02999185049599
O           3.14771538058843    0.79735495420992    0.66795200312551
H           2.66326648476153    1.66384763979496    0.60653682034552
H           2.64223016868198    0.26149288088793    1.29410694444996
H           2.61591244270935    0.06981746780497   -0.53884804573134
O          -2.11850169537999   -0.37510285843521   -1.91271040830117
H          -0.98003236174419    0.28861486990133   -1.26994865595813
H          -1.66343916866821   -1.21260791741699   -2.07533063952430
H          -2.70712900448048   -0.54497756249252   -1.13495995326346
O          -1.24047929169288   -2.32938194595478    1.39954713476224
H          -0.44847865370959   -1.76815168499296    1.45436272399330
H          -2.60122013959449   -1.47907702192815    0.82746420758274
H          -1.05100186990139   -2.94404377477610    0.68454698666144
N           1.46008342124795    2.85183742956661    0.34271096114319
H           1.68342358149836    3.54954052701471   -0.35564451658345
H           1.07033013659234    3.32838596366177    1.14611191518852
H           0.74232337103315    2.24349405883785   -0.04146568087443
