    23
        -45.36401760  Gyration_radius:  2.4018907134 Dipole_moment: 1.941
 S           0.80766291765077    0.64805405771085   -0.90070405753618
O           1.12061779178948    0.46842016806567   -2.27928342653751
O           1.43062880678468    1.73085409146893   -0.19888142022760
O          -0.72807913344778    0.77455304663765   -0.77392649163608
O           1.12343027488098   -0.65667842878075   -0.12032260800841
O           0.49542252976863   -0.55785461570892    2.61480786813851
H           0.86350057975295   -0.83439065485189    1.76482714402559
O           0.62883265307589   -2.17087928900244   -2.03663307703609
H          -0.36762985418953   -2.13740239457952   -2.06583080714899
H           0.92686613392604   -1.46424013222980   -2.62869839168831
H           0.96010733072446   -1.40780635867113   -0.82060062256411
O           1.23794799732394    2.13844284513487    2.40699113552964
H           0.99521087993014    0.22985704805171    2.87527098072829
H           1.84465805916837    2.82534539042539    2.68594475790501
H           1.38558844244600    2.01987902974794    1.44437649039441
O          -1.27082180161548    1.15126075823977    1.65301027615293
H          -0.74333906527969    1.90683364602803    1.94833929266189
H          -0.99179736963933    0.96200823097783    0.21247625346152
H          -0.83031029855113    0.37886782322802    2.09033350114482
N          -1.98663296190829   -1.63304293221382   -1.99740106823490
H          -1.83553912176846   -0.68039149845395   -1.67718714787679
H          -2.57825082554884   -2.09908127639746   -1.32125467715227
H          -2.48807396529874   -1.59260857483363   -2.87565392455617
