    23
        -45.36399029  Gyration_radius:  2.41591869819 Dipole_moment: 2.008
 S          -0.25949401177293    0.87195043237330   -0.61987533124795
O          -0.05971205482049    2.27787183258758   -0.48346633721233
O           1.09337413612383    0.13142634433700   -0.44246555282469
O          -1.10944914979331    0.38942039126345    0.56788193201451
O          -0.82871734821889    0.40070195509982   -1.84847372298029
O           0.91916942109443   -2.67505299565011   -0.66609885728612
H           1.27279293840268   -1.77689333399839   -0.62449890147544
O          -1.49792181678207   -2.07887234933418    0.23609428079263
H          -1.31268907277118   -0.61800645740927    0.46549761288719
H          -1.86898145667002   -2.19164691972311   -0.65044097447848
H          -0.58113050986663   -2.43925874757715    0.14973980950122
O           2.28193346111492    1.42629751858544    1.36136739780500
H           2.66125088174098    2.18006043124867    0.90277231964503
H           1.49604780605674    1.78710612170363    1.87853484638021
H           1.61890671535260    0.61030301429977    0.30379836868999
O          -1.10239596251350   -2.13551665965485   -2.53846830858617
H          -0.99169685944486   -1.17654242625859   -2.36286954480042
H          -1.39809790968492   -2.20743982075532   -3.44679063893291
H           0.47776785601261   -2.74763060940713   -1.52505444757827
N           0.05732119651108    2.41351041842121    2.34645053664412
H          -0.23294429809903    2.61824819965957    1.39143891991335
H          -0.06989723845870    3.24452852128170    2.91022882501110
H          -0.56543670390625    1.69543518904631    2.69469778823044
