    23
        -45.36335632  Gyration_radius:  2.4618711169 Dipole_moment: 2.389
 S           0.21524891955427   -0.90092305323117    0.50805271386561
O          -1.01059616404661    0.01164173121270    0.76040708951088
O          -0.35840047009558   -2.30927989128299    0.64775359957833
O           0.66847477474869   -0.68355532566040   -0.84200793589485
O           1.20254633233451   -0.67603477903295    1.52421471568183
O           1.35932249220521    3.03392135180663    0.88593988780660
H           1.98347727269274    3.70266337791084    1.17243291950641
O           2.70571995663736    0.94113505093605   -0.08763434122576
H           2.11421260781471    0.48837410456494   -0.70754132324214
H           1.88873600154115    2.33335951468308    0.43719165140133
H           2.67362975950242    0.37609047950493    0.69535258740605
O          -2.55225323771508   -2.01729265886282   -0.55861152028277
H          -2.82608236588643   -1.20108268305354   -0.12964844951519
H          -2.22355387762555   -1.75442751417362   -1.47104526324503
H          -1.26779093109031   -2.31652563520707    0.16093120384448
O          -0.06126351455166    1.51080148100403    2.53150673576803
H          -0.75610783577763    0.68610586908614    1.50119055441818
H           0.61337218574308    0.84103120659221    2.71044297709255
H           0.38605914595062    2.20210242396262    1.98430430498516
N          -1.38407583347350   -1.16597459418352   -2.76699773412390
H          -1.70118766914366   -0.32906432254551   -3.23981389362694
H          -1.12852124000422   -1.84369167697827   -3.47381694528870
H          -0.54096628917240   -0.92937444706004   -2.24260355437391
