    23
        -45.36265564  Gyration_radius:  2.45468915 Dipole_moment: 3.916
 S          -0.86876092100214   -0.59743433482144    0.36626195507014
O          -0.68762076290270   -1.06783225777375    1.70445492066300
O          -1.77251643274892   -1.55400237554616   -0.41423613566407
O          -1.36645698977682    0.74819970640900    0.22332566472980
O           0.49010926482454   -0.67118364091080   -0.37823698179920
O           2.40771560676714    0.96296562570717    2.25684401719626
H           2.81511485830117    1.62001880017044    1.69102062608673
O          -0.18663721961081    1.59196670567738    2.50676649318834
H           1.48337416885341    1.26495895675268    2.41228379579117
H          -0.64080091638125    1.50099126541395    1.65195554572650
H          -0.52191750035435    0.86323738574272    3.03698729019014
O           1.99078155592760   -1.51398135905546    1.42851077802945
H           1.23505839196144   -1.75640359616423    1.98101894378752
H           1.19476730390647   -1.06979745523110    0.28085493679259
H           2.30870748423605   -0.64755700051775    1.78703659822307
O          -2.51125669618084    0.08591856284022   -2.17150378324220
H          -2.42207574906966    0.78950857797565   -1.51444338470147
H          -1.68252143942959    0.12663237684135   -2.71989185453848
H          -2.16941727120939   -1.00807320591970   -1.19464074378609
N          -0.04361207158386    0.10808726298576   -3.21291497382956
H           0.37552802774934    0.97660443393581   -3.52026124121698
H           0.20201232358748   -0.61049578224340   -3.88200729378597
H           0.37042499424817   -0.14232864229354   -2.31918514290616
