    23
        -45.36293467  Gyration_radius:  2.48318468411 Dipole_moment: 1.876
 S           0.48412493316046    0.65155833259382   -0.62421340600705
O           0.65044105718734    1.86758166361870    0.12411597133108
O           1.02374473132110   -0.50388007734241    0.24983247099150
O          -1.02159086766980    0.32499940922949   -0.75242005368667
O           1.07740176880550    0.60062566321955   -1.92037356918049
O          -1.32245101750655    0.74236555927719    3.21230192861869
H          -1.51580882163348    1.18104330871928    4.04231954869717
O          -1.95621818784190    1.92867340662303    0.93369477583882
H          -1.16682517717475    2.48003632961983    0.84898393271327
H          -1.52764166884716    0.93520939897329   -0.08960227531588
H          -1.86550332232084    1.46220876448265    1.80338618252203
O           1.25851032442280    1.03030374953362    2.61275041569970
H          -0.34504849835001    0.80058099469368    3.08796433664695
H           1.63288216850276    0.17253585275631    2.39493875979349
H           1.14647361798915    1.47672038074516    1.75299214527747
O          -0.14021138773821   -2.42793058990329   -0.88328452512998
H          -1.02323651386447   -2.04810729284209   -0.91714866630031
H           0.22557243764768   -2.36259995275982   -1.81806553103199
H           0.62878075606079   -1.36543845828078   -0.15067863675575
N           0.82447304042830   -1.88308662591517   -3.27544076299726
H           0.22414709661137   -1.85972089338078   -4.09012563306863
H           1.71022948392886   -2.28499454350844   -3.55517162771191
H           0.99775405683607   -0.91868437012984   -2.98675577088744
