    23
        -45.36265565  Gyration_radius:  2.45492608495 Dipole_moment: 3.923
 S           0.87908193263046    0.40040772250145   -0.56200358665937
O           1.41967291414291   -0.58886344833014    0.33675206931264
O          -0.56732317826022    0.71068079279811   -0.09484649761181
O           1.62490194677241    1.72154593132103   -0.36389631993404
O           0.85134262214125    0.05011890187623   -1.94821105755063
O          -2.03935322259647   -2.29478818100540   -1.54624566841232
H          -2.48395177318545   -2.58593297512724   -0.74911762651579
O           0.59415683368022   -2.65881995552485   -1.19672403849012
H          -1.08867116655290   -2.52559051328755   -1.43407831861545
H           0.95817877713781   -2.29768253898222   -2.01020825081558
H           0.92713014258902   -2.07039118111376   -0.49810309984980
O           2.20434426554626    1.38698215233454    2.06013902688365
H           1.31353111944696    1.55373417648595    2.46998190784999
H           2.23868903379002    0.43528827076163    1.89348926598990
H           1.94095961693258    1.73300962990777    0.61812915832116
O          -1.85905743164878    0.26622609757037   -2.18343527157870
H          -1.19861840565831    0.60661068581115   -0.91944698398343
H          -1.05056573491895    0.25594002148541   -2.71388396843733
H          -2.08356429787609   -0.68595732005125   -2.03165804802687
N          -0.37426217478113    1.64603492464726    2.73678635293242
H          -0.74315514629505    2.57726333716333    2.88195995592425
H          -0.78357622930720    1.03636141773730    3.43335960353289
H          -0.67989045375770    1.32782203099728    1.82126139572923
