    23
        -45.36293461  Gyration_radius:  2.48334776641 Dipole_moment: 1.871
 S           0.43679825346651   -0.59919220592067    0.70499007416579
O           1.79703380696984   -0.78659577587519    0.27966444571156
O           0.06785068848232   -1.15576018976548    1.96546337892809
O           0.15754911317098    0.92145073048322    0.69679511788862
O          -0.52302530066731   -1.14119233603162   -0.37901998931960
O           1.45680494996646    1.06614305161408   -3.05907282451783
H           2.08956555890094    1.25572945464246   -3.75365675458305
O           1.08971338695655   -1.43455606273926   -2.27659023979853
H           1.82267010049069   -1.48453309601219   -1.64849268265805
H           0.03599557056255   -1.30482813229493   -1.23273862045999
H           1.15413127769594   -0.53776453035786   -2.69347528549322
O          -2.35860145662489    0.85335789310103    0.62917179041518
H          -2.45383073484042    0.20645636030474   -0.07629654999151
H          -2.57053789292351    0.36554374269453    1.48301102166250
H          -0.86691724658685    1.01697614455476    0.70087312140308
O           2.52322485773968    1.62508377049012   -0.68107912478972
H           2.43798722700183    0.73807871114544   -0.28506206268163
H           1.86691064012321    1.37641052278015   -2.21665281664485
H           1.91443696011678    2.17483737203490   -0.18057894009965
N          -2.59282714142704   -0.61726305124062    2.80491383025294
H          -1.63406199127178   -0.94838876569673    2.68420815485659
H          -3.20009541059242   -1.42683759349178    2.82605366150031
H          -2.65077519670411   -0.16315598440465    3.70757130423301
