    23
        -45.36293454  Gyration_radius:  2.48450900201 Dipole_moment: 1.865
 S           0.57633521244560   -0.56446556164150    0.62414675093130
O           0.96538702302819    0.47352485401263   -0.45377277440956
O           0.57426742681514    0.11460027142520    1.89103785868622
O          -0.87134647229547   -0.94783717987424    0.24041863533026
O           1.40377794965015   -1.72057990534565    0.50827215696192
O          -1.92514883849286    2.84978213327401    0.90715717907451
H          -2.28036476990555    3.59706043246736    1.39106476675250
O           0.71691817954888    2.72564126388362    1.23715010019885
H          -0.94321067335819    2.90701829358677    0.98813649295656
H           0.76099448512059    1.83128113578773    1.62327759834077
H           1.14177732887030    2.64191822262421    0.37933325706742
O           0.08149226547163   -0.72823692162027   -2.48264861130729
H           0.61903660355553   -1.57815552999786   -2.46662760556153
H          -0.78483157267586   -0.95618958799746   -2.13227297644075
H           0.67413587298930    0.06475129154639   -1.35165154771482
O          -2.13904432351796    0.41491497683774    1.92068096528765
H          -1.35870619832406    0.44103075879705    2.49052199885628
H          -2.20590565554010    1.31682326535506    1.51551699370536
H          -1.50544112523181   -0.43639983240081    0.87647208507761
N           1.47708951816427   -2.92593852210907   -2.06365031320233
H           2.40869072055857   -3.00329743435530   -2.45144108234681
H           1.04413105144800   -3.83953315598313   -2.11387266140349
H           1.56996596164366   -2.67771324827297   -1.07724927676706
