    23
        -45.36265657  Gyration_radius:  2.4550285459 Dipole_moment: 3.933
 S           0.04160747534645   -0.34274238629586   -1.05960104171453
O          -1.17642705603886   -0.95775471350782   -1.48768370107708
O           1.22626437904558   -0.91104022923939   -1.84320251268599
O           0.08363821378627    1.09743177338635   -1.11373293678496
O           0.32531424972089   -0.76112801913547    0.40689394776736
O          -3.03483145762982    0.02972234558112    1.60393963894267
H          -2.75473474973115    0.59032062416818    2.32859008605840
O          -2.57421827909166    1.35419868405196   -0.68010253675959
H          -2.81726344165361    0.70249544603533   -1.34428152662684
H          -2.94890863896106    0.57032132568923    0.78513118251023
H          -1.61751399966262    1.47910159148078   -0.80008679815251
O          -1.68973930761541   -2.14195053262963    0.91802135896893
H          -1.92327010769820   -2.20055719885600   -0.01847041143716
H          -0.44401450829980   -1.39692850785188    0.71233450063126
H          -2.27715941830532   -1.43687111795360    1.28955681563091
O           2.79658783431709    1.01583798500878   -1.46240944684840
H           2.02774298391655    1.60122807207196   -1.43253144570156
H           3.04113635878902    0.84781953161693   -0.51312829698306
H           1.97865855273726   -0.20794008268130   -1.78303055405611
N           2.99427016816220    0.37167052863704    1.13012770711501
H           2.07728407456202   -0.06642871960752    1.12420349788848
H           2.99286280403248    1.09276040217938    1.84039584959704
H           3.67271388027834   -0.32956681217612    1.39906662380549
