    23
        -45.36398990  Gyration_radius:  2.4158740001 Dipole_moment: 2.001
 S          -0.69078227848673    0.59264648553966   -0.61905480876236
O          -0.32455872669664    1.97461114689188   -0.51245441653498
O          -1.05738383461268    0.04165709762237    0.76972119678484
O          -1.74198963741096    0.25781402192431   -1.52342156118131
O           0.59792313857002   -0.18232049122846   -1.00487571791680
O           2.80968397726134    0.32227805643667    0.67156249688744
H           2.27179905592813    0.03390227712863   -0.07740373981748
O           1.73426833384462    2.90951507369241    0.85575499599501
H           2.83815841088282    1.28904503805496    0.62182160976853
H           1.85318376832802    3.84509903989228    0.68792016118112
H           0.98097230320340    2.62542532903155    0.29485773842086
O          -0.23749776322847   -2.43085154463040   -1.77272823024552
H          -1.07678641853346   -2.51336503890403   -1.22184067923239
H          -0.53123220598909   -2.27795554764376   -2.67421878487933
H           0.31717134347570   -1.12528762065470   -1.31160585243828
O           0.79290202248564    0.72525284825285    2.33971392932694
H          -0.33475752652277    0.31472782413426    1.45482037835848
H           1.60256143340127    0.36364437277335    1.90211868961137
H           0.89890176787895    1.68321005467000    2.25349072809136
N          -2.47330553648877   -2.24563523845922   -0.40735040720509
H          -2.31559904341343   -2.17343810192711    0.58996921065066
H          -3.34672230625767   -2.73525942724004   -0.55579381329719
H          -2.56691028837500   -1.29471566542914   -0.76100313361902
