    23
        -45.35981399  Gyration_radius:  2.32639170121 Dipole_moment: 5.647
 S          -0.97826274140945    1.76442433600690   -0.72593060934180
O          -0.42042565394532    0.68447722345762   -1.69933290857215
O          -2.25962037396146    1.07411700301899   -0.17523610689098
O          -0.05132558897385    1.90260583025383    0.37349657867489
O          -1.28492837625868    2.93068780222752   -1.46258131628321
O          -0.04775489052047   -1.53195292478685    1.66152061414749
H           0.30107426142336   -2.26563938744663    2.16878159708043
O          -1.54031897087736    0.66251542928993    2.23012331595613
H          -2.10350406621057    0.90535943676636    0.81363997767460
H          -1.08647318857407   -0.20317601220650    2.19973132963491
H          -0.84324753358035    1.32322027075596    2.10913605204879
O           1.82773612194440    0.02743292150898    0.88260558109416
H           1.30176774812613    0.83552442666195    0.74401121570209
H           0.74781389225957   -0.96115227528099    1.39536180152213
H           2.12738383142759   -0.23675717940380   -0.01916851051056
O          -1.24728636834993   -1.54044698051965   -0.72157810414564
H          -2.16864470637563   -1.32688171205526   -0.54956630052562
H          -0.70078982274006   -0.22405931338760   -1.36198571129235
H          -0.81379074440577   -1.65100800180374    0.15498417267006
N           2.32485115092801   -0.53443479780616   -1.73222125539291
H           1.53116993965582   -0.00116526842620   -2.07383059518990
H           2.22136046861128   -1.48513941377297   -2.06417336555750
H           3.16321562180416   -0.14855143304705   -2.14778744249872
