    23
        -45.36398981  Gyration_radius:  2.41578558698 Dipole_moment: 1.999
 S           0.49685139354860   -0.17102186042720    0.96574589517796
O           0.36105872698646    1.01386461203188    1.76142759496241
O           1.25413609369523    0.15673855620320   -0.33240392249068
O           1.11842494875437   -1.30315927040733    1.57167062878324
O          -0.92938933974620   -0.55230241219081    0.48534051341660
O          -2.33953466313769    1.55035314894136   -0.75925046013894
H          -2.13597988587238    0.71176920692052   -0.32478655541982
O           0.16464084576655    2.20377619762983   -1.32027052810298
H          -0.78456644877249    1.93722863572235   -1.39620775908524
H           0.15376252418140    2.88087208361106   -0.62896917497861
H           0.85425010429383    1.00480815465790   -0.76548933883131
O          -0.69118402591652   -2.92122818764634   -0.33516017939183
H           0.26972986778634   -2.91519431671605   -0.63747644430109
H          -0.70899912859193   -3.44974800876885    0.46653027114724
H          -0.88942176562486   -1.51443276005728    0.11746303271569
O          -0.95513472879819    3.19194727147811    1.05046055948957
H          -0.48694452441556    2.40045944290996    1.39280809312188
H          -2.26373622101961    2.23036361752629   -0.07392445633294
H          -1.00876713937653    3.80718139220753    1.78275308944090
N           1.88292189714786   -2.67274808205433   -0.79258659436169
H           2.58477051032263   -3.39853765869322   -0.86520990154625
H           1.96418687585604   -2.22896089452917    0.12089511415700
H           2.08892406284788   -1.96202887825235   -1.48335949739343
