    23
        -45.36401743  Gyration_radius:  2.40167731725 Dipole_moment: 1.932
 S           0.75469061184414    0.64515627969074    0.94732927087784
O          -0.46069808099171    1.20947374806174    0.16264101742010
O           0.27736423533362    0.21344960253923    2.22748543115097
O           1.17184536308113   -0.58940311774148    0.11553861194844
O           1.82662890815899    1.58329841346543    0.90829509618059
O          -2.66757497438774   -0.52192044219578    0.02730039362176
H          -2.11581573021226    0.27036718486255   -0.02022158576408
O          -1.85851482082988   -1.30149856981471    2.59656364236671
H          -2.08237997306648   -1.34639298787916    3.52691860275912
H          -2.80862180782788   -0.68909502093701    0.97083151401340
H          -1.08394720606909   -0.70284540971158    2.53191446579915
O           0.91939548484984    2.50904191257621   -1.45523408987988
H          -0.02576472333636    1.80111220808262   -0.57322612906675
H           1.57900054438603    2.61775692565200   -0.75394762123449
H           1.27401070688117    1.78420562135036   -2.04138794773139
O          -0.69848303456952   -2.26645461853293    0.23839087253119
H           0.43655818851101   -1.32056781439048    0.16618147548924
H          -0.88910361104838   -2.41131266828096    1.17594819480749
H          -1.47630246783432   -1.73846755502351   -0.07501993697267
N           1.89090912771948    0.31647087700589   -2.63061566703575
H           2.84679944791152    0.32535145315221   -2.96325093797866
H           1.32651484390666   -0.16968889710198   -3.31585421492684
H           1.86348895757568   -0.21803713479736   -1.76658045827536
