    23
        -45.36335625  Gyration_radius:  2.46209404269 Dipole_moment: 2.382
 S          -0.76967970646474   -0.01793689246013    0.72416599440210
O          -1.97021244424083    0.55618795663964    0.18862602297627
O           0.34078496372139    0.89170588028096    0.84535497349487
O          -1.06494379526325   -0.66663626094407    2.07467056461729
O          -0.32409547769242   -1.21151909782891   -0.15672521571472
O          -0.47420280213932    1.09428748946327   -3.22933895399556
H          -0.77830071137534    1.60645589497739   -3.98041827983722
O           0.86676643868835   -2.27880880886391    2.22633696230366
H           0.79278387640574   -2.65009051018275    1.34208620109667
H           1.64031271067691   -1.63828535456983    2.19460377795792
H          -0.30970058306628   -1.34507186038136    2.25743486836591
O          -0.62337566862822    2.60093310710748   -1.02747244345862
H          -0.44087100851374    1.71541030613111   -2.46412174935672
H          -1.46539093560789    2.27165619131101   -0.68709486096952
H           0.02090164692329    2.24564497877487   -0.39667243124256
O          -1.85288547196428   -0.88181562720556   -2.11616157996349
H          -2.42736239625095   -0.34435230742653   -1.55320319831252
H          -1.33653469614719   -0.23973899275794   -2.66279493220116
H          -0.90080759434518   -1.20483999930591   -1.01457267929185
N           2.66463663183956   -0.37054464366580    1.92171101408839
H           3.42080825384510   -0.46328772869089    1.25529429565496
H           3.03195614475290    0.08737918652668    2.74607364654185
H           1.95941263489693    0.24326710318572    1.51221801292386
