    23
        -45.36398988  Gyration_radius:  2.41576914866 Dipole_moment: 1.996
 S           0.53150939024209   -0.53087491745909    0.80346995494781
O           0.04387833249673   -1.21436053922880   -0.48540046495746
O          -0.21575737406485    0.82980349250601    0.81579104213979
O           0.11015903358425   -1.32057144494760    1.91431708680491
O           1.92966271200839   -0.23237782465708    0.69635680637458
O           0.46002115744301    2.54796429965728   -1.31708211242052
H           0.11135807419447    2.21744458577811   -0.47887332838642
O           3.01373329971474    1.40785406918745   -1.06925270133766
H           1.42284817896675    2.56845829557060   -1.21506221074959
H           3.94128765249634    1.54661553455765   -0.87465225942677
H           2.67143608041635    0.82107283144510   -0.36130033650532
O           0.88392557066931    0.17519211018981   -2.41328657383117
H           1.83881429882724    0.27815317583573   -2.29534447387090
H           0.38263860532874   -0.68961182635210   -1.30790997851979
H           0.52828831756223    1.07530590852263   -2.21020418964693
O          -2.53058329101260    0.25934502399027    1.62703892229284
H          -2.43541792557206    0.19068709890507    2.58022957535522
H          -1.18355595227172    0.65440463202893    1.12422815541014
H          -2.61461671602731   -0.68681456909062    1.29158283472419
N          -2.35471713951173   -2.24502717119878    0.85667406267416
H          -2.88328597067433   -3.04472036504537    1.18184419892662
H          -1.42820479846323   -2.27108514072662    1.27969603904639
H          -2.22342151614886   -2.33685724940075   -0.14286005890445
