    23
        -45.36335612  Gyration_radius:  2.4626934286 Dipole_moment: 2.391
 S          -1.03919842218738    0.03918683035365   -0.17493062428095
O          -1.71216136058556   -0.96106234186842    0.60272342164144
O          -2.01726892931106    0.66759815562392   -1.16505591225392
O          -0.38146927067528    1.06733591153017    0.59010079372477
O           0.01476442321782   -0.63281514640442   -1.08954753654201
O           1.48706660712617   -2.38300219868706    1.99954498993902
H           1.64425178185787   -2.99200706277892    2.72292280027928
O          -0.19164460335985   -0.47166780391748    2.81790329928332
H           0.95679979590030   -1.63973171993982    2.37201941027291
H          -0.03160475817919    0.30859217541847    2.26631409226416
H          -1.00663063822316   -0.83567050726328    2.44764586588998
O          -0.40021927331424    1.58006127200727   -2.86951147972368
H           0.14398691679378    0.79240139811422   -2.96275022383583
H          -1.45564482630060    1.10187431481825   -1.91358353148555
H           0.12698515081030    2.21516611081705   -2.29644867308107
O          -0.00218272447671   -2.94650256156688   -0.12428367759190
H          -0.86761257557535   -2.75836477857339    0.26473288841070
H           0.09707083563399   -1.62283271798742   -0.80389928018070
H           0.64917297994732   -2.85615479408101    0.61407791892235
N           0.91051835494232    2.99751984420626   -1.06997773621649
H           1.92066232358991    2.96897358192192   -1.01357580326942
H           0.53791786010190    2.41164196101403   -0.32181554891201
H           0.61644036225670    3.94946006722264   -0.89260545325283
