    23
        -45.36265603  Gyration_radius:  2.45503673545 Dipole_moment: 3.921
 S           0.14338696778175   -0.58083300193928    0.94240545758491
O          -0.70588679855194   -1.72119109721460    1.50728029695045
O           1.52317692945354   -0.78860199496863    1.25546282995101
O          -0.04429182602838   -0.69646134178169   -0.59308053459787
O          -0.42249059627589    0.68025802246855    1.35257713233136
O           2.72995642113450    1.52220844970613   -1.43048307764220
H           2.23038713654158    2.09611041651241   -2.01265005062944
O           1.92373996727475    1.99948486695086    1.08144571588935
H           2.42941562063882    1.35313260240539    1.58266477422682
H           2.48869552897648    1.78083131401316   -0.51136589263496
H           0.99770997408529    1.72608675602830    1.19519885939017
O           2.30367891591955   -1.08679646447805   -1.34314923664480
H           2.57557399577925   -0.14946723903779   -1.50961162968811
H           2.59014215515260   -1.27847178925930   -0.43967711732567
H           0.88542153625390   -0.91686741328034   -1.01320540632434
O          -2.89200719329696   -0.47962101438409    1.55792068147403
H          -2.39451815406215    0.33539073488183    1.70947714445132
H          -3.10885430832519   -0.48302852626443    0.58724683431830
H          -1.66599139941434   -1.35372422900808    1.59436464903816
N          -2.97799181845863   -0.47947786780406   -1.11920125200302
H          -3.27815014907889    0.34594437035705   -1.62222047442571
H          -3.36576664590951   -1.28841413883341   -1.58784290173363
H          -1.96533625972248   -0.53649140529955   -1.18355679219785
