    23
        -45.35981436  Gyration_radius:  2.32614624135 Dipole_moment: 5.668
 S          -1.24447035546136    1.21072157555004   -1.26294015766425
O          -1.70541808943764    2.03199212195958   -2.31637883318341
O          -2.39718661465845    0.37718869331095   -0.63196082429526
O          -0.32666102329655    0.09999303920798   -1.85349634044621
O          -0.53344606246506    1.85709127625813   -0.18417458439848
O           0.07316117013518   -1.00907627015964    2.01951569090243
H           0.50564114575094   -1.47318604184935    2.73704238456567
O          -1.94509197669599    0.79618242336094    1.83619901367500
H          -1.40688702279402    1.55982221574429    1.58265273380764
H          -2.34608566035802    0.51365426675587    0.37284960924832
H          -1.30599017601275    0.09869088541874    2.08418983781566
O          -0.74354793345861   -1.93579024540390   -0.34538647816869
H          -0.42448194440120   -1.70206405130058    0.55575760903889
H          -1.70408937243258   -1.93290996185508   -0.30793569049645
H          -0.43236984263066   -0.73169643987287   -1.29243686512441
O           1.63519714665455    0.72409462764637    0.96528715877523
H           2.10624208274255    0.31966699812611    0.19886580297817
H           0.96386754345532    1.30656226893255    0.56670320997224
H           0.74717508705656   -0.34093307635590    1.66031913211042
N           2.59633514945564   -0.35898729896607   -1.33760663595434
H           1.76379618696532   -0.14131035883101   -1.87649718830461
H           2.73908850799439   -1.36001503865603   -1.38551151533369
H           3.38522207388461    0.09030840097179   -1.78505706952034
