    23
        -45.36399016  Gyration_radius:  2.41609527475 Dipole_moment: 2.008
 S          -0.23650535140361   -0.92208238838287   -0.55065989818344
O          -0.54153094461588   -0.72118421858534    0.94363738621729
O          -1.42256620451900   -0.69617036696988   -1.32380189153904
O           0.74609162867831    0.22963067000795   -0.89408661965004
O           0.42153630731087   -2.17821403201094   -0.70657348785691
O          -0.35801488371739    2.81332348528639   -0.63971315859487
H           0.22897981742060    2.08458741742438   -0.88019418103130
O           2.96524099584375   -0.56005444753107   -0.00290176541890
H           2.66099655000356   -1.14595543341159    0.75818606172648
H           3.29213006891067   -1.15884276883686   -0.67890141094729
H           1.67543990419444   -0.03181053914311   -0.53266963692720
O          -1.77127567181483    1.46929749365883    1.15183183210549
H          -1.06539240601733    0.15875633050074    1.07770386186899
H          -1.15731068194409    2.11187994756297    0.71850400062600
H          -2.52337230976098    1.43139288250474    0.54398497470784
O          -2.74490387145034    1.58673630587669   -1.47208630578259
H          -2.27783627444427    0.72415635788613   -1.49573906895874
H          -1.14490957179190    2.71554135981638   -1.19553129171116
H          -3.43891949115074    1.53170926133189   -2.13001079055281
N           1.87030766113426   -2.19958948034983    1.73149314725652
H           2.27827650448360   -3.01196567524959    2.17670747442827
H           1.24751728918125   -2.51190275834777    0.98803384054312
H           1.29602095537712   -1.71923940300836    2.41278693768100
