    23
        -45.36335530  Gyration_radius:  2.46356881561 Dipole_moment: 2.401
 S          -0.35715435799190   -0.67577968747027   -0.72384348104599
O           0.43458989815106   -1.87227432523994   -0.72193653507649
O          -0.95734337184504   -0.44557265417124    0.68520191707465
O           0.34360578325025    0.52011801691626   -1.11536178938845
O          -1.58864164014013   -0.87364093344828   -1.60509773980807
O           2.56073488265866   -0.76208849783871    2.18645476606104
H           3.38373471159128   -1.10945891478978    2.53412990632374
O          -3.09458909274549    0.91494197870694   -0.66344771967820
H          -2.28193144281151   -0.16514825624760   -1.31999412184023
H          -2.96297411605774    0.71242719172359    0.26770678979129
H          -2.54351729972676    1.73400957590189   -0.84994060565855
O           2.77676613737746   -0.49608632153059   -0.46397459963316
H           2.71906456945038   -0.57563226645013    1.23123499634462
H           2.32281726684684   -1.31032987579658   -0.71923582609369
H           2.15668122385166    0.19441661211667   -0.74140827164982
O           0.32083318518296   -2.17114198457725    1.97858747666461
H          -0.51908580020557   -1.12289697466526    1.33176013446493
H           0.52122511717893   -2.62133797012169    1.14622491401497
H           1.13898286329938   -1.66926339429355    2.21608569796876
N          -1.33419637965459    2.83091463781919   -1.10931576095764
H          -1.09580791408053    3.50517528093264   -0.39307463718850
H          -1.36103884867513    3.31695854789309   -1.99661785525916
H          -0.58275536493498    2.14169022461957   -1.15413765543592
