    23
        -45.36335619  Gyration_radius:  2.46160876621 Dipole_moment: 2.387
 S          -1.02578999618485    0.25330589398594   -0.04725638906739
O          -0.19893726922425    0.03772273283212    1.24459015827849
O          -1.94076659191038    1.42227743476268    0.31019811716477
O          -0.12228027202237    0.63731174035288   -1.10148433404804
O          -1.81346999550501   -0.91477562226573   -0.31737465491506
O           1.16020406710698   -3.23035603107405   -0.25654409548272
H           1.25766538514444   -4.14162937095666   -0.53770683017297
O          -0.57524509166719   -2.41801349408397    1.58005574270389
H          -1.35497460221611   -2.35733867668597    1.01076720970496
H           0.13880719939045   -2.80531282213461    1.01630173846647
H          -0.28229740484828   -0.95746123774762    1.51154693399331
O          -0.05621386336046   -1.84606237551824   -2.19154438386224
H           0.81143247478851   -2.73494614097100   -1.03462850923914
H          -0.95382982698153   -1.86567917460937   -1.83473890749313
H           0.20118198129755   -0.91817782132411   -2.08323090642757
O          -0.32381884234311    2.88525368612675    1.57397459672992
H          -1.36858702404487    2.11113677813535    0.82270778080267
H           0.04440315513419    2.20475845323623    2.14536061489931
H           0.36473395989830    3.05142719348164    0.86114854288903
N           1.38803268817078    2.96555192618246   -0.43288589053084
H           0.96841857850897    2.12843215071603   -0.83918146924446
H           2.37260291668069    2.78079229169443   -0.28825488908693
H           1.30872835391130    3.71178251577208   -1.11182018608585
