    23
        -45.36265659  Gyration_radius:  2.45546046315 Dipole_moment: 3.938
 S           0.90365447859726   -0.08613026195354    0.64354119792001
O           0.99769134345387   -0.18366809771767    2.16728567021073
O           2.02169070134029    0.63772774169799    0.12294565251358
O           0.68388461590295   -1.40195539557126    0.09637446017175
O          -0.38590656763192    0.74047396720543    0.39853882063504
O           0.33320291711732    1.36344859675571   -3.13361769379065
H          -0.50672098965285    1.04541022902162   -3.46709854692532
O           1.74196891314006   -0.76177522218164   -2.30913000354898
H           2.52707702909017   -0.35177680256371   -1.93441283650759
H           1.29592706960310   -1.17300951158727   -1.54933536610601
H           0.87112099820528    0.56420890816494   -2.92835926977260
O          -0.49327002378834   -2.18994239404147    2.43690600706851
H          -1.37823493116996   -1.76166718315195    2.28584613747198
H          -0.19881240550131   -2.49169724920740    1.56684049819528
H           0.42068189392182   -0.99369808890115    2.44273909092326
O           0.52106644404616    2.69739625542561   -0.85736580435001
H          -0.11225022042471    1.62389724960155   -0.08489065618483
H           1.42781707796120    2.47733314928205   -0.60372116567437
H           0.41928596246185    2.35752418157949   -1.78169261362951
N          -2.62266467815653   -0.72633731525315    1.73174299998976
H          -3.33212151362964   -1.10875303668713    1.11942030172832
H          -2.04626139545256   -0.09038298676611    1.18749243756701
H          -3.08882671935646   -0.18662674314869    2.44995067205735
