    23
        -45.36265654  Gyration_radius:  2.45561006093 Dipole_moment: 3.934
 S          -1.09054194207313   -0.01744332927207   -0.21799906366719
O           0.05221697772251   -0.76368102716983    0.51897407243363
O          -1.40008596499790   -0.72236430011305   -1.42305629675961
O          -2.26834169080070   -0.08868337205814    0.75567355087262
O          -0.68229277439856    1.35720714474549   -0.36895318456966
O           2.18640311993573   -1.03150445070375   -2.44146834725534
H           2.96789925292438   -0.64913728838393   -2.04035128131596
O           0.40793477614680    0.93909895640920   -2.80882850199989
H           1.58823201125304   -0.27918299909112   -2.65688442107247
H          -0.35601618207916    0.46211973352215   -3.14614133328730
H           0.11862351467571    1.28336376511102   -1.94681855770141
O           0.54775773173105   -2.60653380425873   -1.08923694178831
H           0.30818983648984   -1.59965003266894   -0.05123492735056
H          -0.27678553562258   -2.44936334691771   -1.56918782651844
H           1.25143329223795   -2.16608050371550   -1.62891906226837
O          -1.65898057711248    1.93328652161942    2.12028566774513
H          -0.90208375097268    1.55792939570174    2.64500765838415
H          -1.26069968209812    2.31452842292202    1.32601811295095
H          -2.16028585410308    0.70848823390111    1.40173558086462
N           0.45492070081277    0.63425925957523    3.12954209135393
H           0.52265288761982    0.03963735532909    2.30811423915638
H           0.30716928428470    0.03823226557568    3.93412111335651
H           1.34268056839981    1.10547341989768    3.24960765840426
