    23
        -45.36265660  Gyration_radius:  2.45541691109 Dipole_moment: 3.934
 S          -0.58922010758854    0.40620029940521   -0.85239740384452
O          -1.77352556316195    1.08666928286430   -0.42865882822037
O          -0.78300999961886   -0.17231215281638   -2.25524723733751
O           0.63304285260103    1.17043374038031   -0.81895971871017
O          -0.38136653408418   -0.84273373189280    0.04373221888591
O          -0.82595971093514    0.97462342931665    3.18765223629266
H          -0.01038780548804    0.67950804243080    3.59465037788196
O          -2.27878309483616   -0.61182549206706    1.64847594637282
H          -1.16434594300289   -0.87516138881751    0.73310738299707
H          -1.82782402418169   -0.08971163430820    2.35852598800767
H          -2.71282873537032    0.04450438629185    1.08648756848348
O          -0.18935107963945    2.71001900556527    1.24721897482213
H           0.30110716571419    2.24946496401894    0.54533354707011
H          -1.04717675563423    2.90048398356162    0.85634874600450
H          -0.57707829954779    1.68093463044805    2.54783027051975
O           1.65317510562225   -0.35068707623926   -2.85129646186270
H           1.81943110324628    0.41638988549291   -2.28674180590351
H           1.90108318558566   -1.14365719479779   -2.30438666182687
H           0.16171209515293   -0.30241732070519   -2.64913307613967
N           1.96541836455428   -2.32292454869662   -1.06611841337499
H           1.74878372817415   -3.26852126640082   -1.35471669364261
H           1.18966038712502   -1.98178221157349   -0.50514030596969
H           2.78744366534210   -2.35749764147544   -0.47656666051293
