    23
        -45.36265657  Gyration_radius:  2.4555758906 Dipole_moment: 3.936
 S          -0.08229270287420    1.10091518299861   -0.14190692887182
O           0.79292526959837   -0.14163479763685   -0.45197731948533
O          -0.81866884039614    1.45128395389950   -1.31667171126101
O          -0.86087309596891    0.79869184173658    1.03350240564124
O           0.93254092916504    2.19516551230151    0.19423865108237
O          -1.93634446688754   -2.06376633255150   -1.94806331195087
H          -1.81991519237931   -2.84492696719767   -1.40578018428155
O           0.12011250495900   -0.63748759538977   -2.80344774599389
H           0.62708697237443   -0.40936599709821   -1.44710896109865
H          -0.62276692092207   -1.26857901665916   -2.62965263618973
H          -0.29858900708612    0.22901788927870   -2.89738136610536
O          -2.95983215957345   -0.13491575385597   -0.39442051614366
H          -2.31371204763829    0.11283094107774    0.28857874265592
H          -2.97924119352305    0.61827050170039   -0.99206278788601
H          -2.40199543493068   -1.40232171487422   -1.38610855668627
O           1.20408631187506    1.62255370503607    2.62735513384806
H           1.76421605774485    0.80489804275703    2.54427139304705
H           1.14865697903068    2.09279674181196    1.19796707889581
H           0.28870198301524    1.31128746237924    2.62796336951817
N           2.47145506774592   -0.64362990720406    1.96931781452804
H           2.28588125305393   -1.50394439257140    2.46928072840428
H           3.46611804749817   -0.59701559230525    1.78796818151725
H           1.99244966668403   -0.69012371759440    1.07413852690368
