    23
        -45.36190161  Gyration_radius:  2.38881144585 Dipole_moment: 3.774
 S          -0.09267550455201   -1.11522965614330    0.67315752356611
O           0.29150869500844   -1.15679293022515   -0.83167170453347
O          -1.24248433155386   -2.10876063447205    0.75290677231038
O           0.99279287615752   -1.56645046628746    1.48406193337357
O          -0.54064326011345    0.22790744517620    0.97319968125743
O           3.23498743154716    1.09308758159249    0.35442680797843
H           3.74071759565472    0.28144296608275    0.28748009016309
O           1.80138005001591    0.73928709961095    2.58831613911087
H           0.94020805813924    1.16269016366772    2.53980020702861
H           1.62581869026681   -0.19662636461315    2.38262929592647
H           2.82181672486432    1.07951496901728    1.24808346971506
O          -2.45918201135344   -1.77592291744648   -1.43231408421861
H          -1.82111460105616   -2.02733924791914   -0.09721240411467
H          -2.52232568948451   -0.77301352402906   -1.43129989221599
H          -1.76323043599676   -2.00154390348007   -2.05562691476547
O           1.00726402210472    1.25202393220103   -1.03683182133249
H           0.63552554744064   -0.22225618296054   -1.06748988321317
H           0.43856926143132    1.45394376750740   -0.28146510740574
H           1.92855788285258    1.27745872522194   -0.67137949544195
N          -2.32029784426541    0.84683441549674   -1.18523531512860
H          -1.71594609837255    1.32490764259636   -1.84242859370047
H          -1.82914371904066    0.79635241659283   -0.29358716858504
H          -3.15210334001499    1.40848470281723   -1.05751955567679
