    23
        -45.36265658  Gyration_radius:  2.45542725912 Dipole_moment: 3.935
 S          -0.87523380204396    0.54357889363939   -0.42037957376057
O          -1.29298416643812   -0.83009509889570   -0.28731074897425
O          -1.44471002163286    1.47135693021974    0.50697459987439
O           0.66886493526673    0.57582695745210   -0.27658334197986
O          -1.12397056499118    1.00855962474763   -1.85632640927851
O           0.63463301190008    0.25029910624177    3.36655865560459
H           1.23220079671025   -0.49732699579745    3.40871550303976
O          -1.69851049390780   -0.62319497272331    2.37892903322887
H          -0.24135269530183   -0.10927885135696    3.09549389452665
H          -2.20736145273642    0.19006444707786    2.31098297662685
H          -1.57653670585452   -0.91163124972477    1.45847416681759
O           0.94916200474617    2.19498540232528    1.60157060799521
H           0.94315989189576    1.56224540689018    2.36303381897218
H           0.90680976184545    1.27399984053952    0.46195445499115
H           0.03488730997835    2.49770089463706    1.51503405461563
O          -0.84962166602663   -1.23565049629724   -2.95605364020878
H           0.13990802460555   -1.32452674103499   -2.90837479709826
H          -1.18609998325780   -1.64279569741738   -2.14622118221979
H          -1.04787939708254    0.16902267277922   -2.45142440094912
N           1.77229461280414   -1.20243233179777   -2.41014260411430
H           2.24330808730953   -2.03972876584595   -2.09132455941651
H           1.63094525630594   -0.59562436548118   -1.60718365383997
H           2.38808726586489   -0.72535460009691   -3.05639684456012
