    23
        -45.36265659  Gyration_radius:  2.45549744288 Dipole_moment: 3.935
 S          -0.71623186281039    0.85005107636920    0.03198824001186
O           0.19811178341005    1.06177846350789    1.12665913796029
O          -0.09045318245314   -0.22426338099977   -0.89561966057167
O          -2.04079948401228    0.44143113770590    0.38344653270937
O          -0.76192123719147    2.10857737418469   -0.83639012545428
O          -0.98444652236102   -3.03470626348450    1.27105151589991
H          -0.10346612729988   -3.40716280399954    1.32550460819010
O          -1.00525966783271   -0.77295597598379    2.70830067402497
H          -1.89135401667101   -0.43680085198635    2.54499236920940
H          -0.99761909081743   -2.26231730196082    1.88208247143451
H          -0.41681499734257   -0.11909608615226    2.29419736444659
O           1.58141623982416    2.88932555818446   -0.36650861807350
H           1.51266545892882    2.48199652812354    0.50761878526163
H           2.08806963852545    2.24030540155853   -0.92452056776094
H           0.16078285459868    2.56060380472128   -0.74206170579988
O          -1.90574633554450   -1.93614514159900   -0.95180677938796
H          -2.54548920877538   -1.31227372256254   -0.58240264358033
H          -0.79769435432430   -0.97938165530716   -1.03275873745018
H          -1.62116555484899   -2.49969852697395   -0.18920383866830
N           2.56660010461532    0.83013338938194   -1.76754115795230
H           2.65162284997348    0.93284155328710   -2.77080655514986
H           1.74241476827977    0.26591389385412   -1.57982727597043
H           3.37677793406430    0.32184351982412   -1.43639402325204
