    23
        -45.36190165  Gyration_radius:  2.3889065944 Dipole_moment: 3.762
 S          -0.03532813458213   -0.36928740425189    1.25687212205591
O           1.01086738172310   -0.19344150728046    2.34790598710541
O          -1.18035295823704   -1.03646495240052    1.78886454623161
O          -0.38153009302373    1.09634614835163    0.87517502656070
O           0.53206517251325   -1.00358610713777    0.08622181832861
O          -3.11811102147065   -0.60625037259244   -1.30085966340456
H          -3.70565501261363   -0.33068153432823   -0.59528367321685
O           2.30983166711629    1.83403690630749    1.59404825934709
H           1.61635080154355    0.60764408699649    2.11199303966632
H           2.47271000747802    1.57460642805337    0.63704208089550
H           1.61052613889032    2.49321842725448    1.57951122417417
O          -1.80138531137303   -2.67992521887021   -0.23616947171919
H          -0.90228046470344   -2.75021078247804   -0.56762723980062
H          -1.70976450453700   -2.24420428759140    0.63042391271025
H          -2.73729940327769   -1.46755249748129   -1.01302429389825
O          -0.84118142939072    0.68485512778881   -1.56934330311692
H          -1.76666729161315    0.33062772649778   -1.59938933933898
H          -0.62080710766025    1.08737287880298   -0.11990304464442
H          -0.28038340263258   -0.10061031894084   -1.51003183651047
N           2.42578031394009    0.91941016412718   -0.87763640374626
H           1.90945091315634    0.07020102245520   -0.65154650322261
H           3.30512368833371    0.65233656424411   -1.30091399673571
H           1.88804007064499    1.43155949232156   -1.56632922768349
