    23
        -45.35981436  Gyration_radius:  2.32612326406 Dipole_moment: 5.670
 S          -0.72300108194743    1.96980085270147   -0.45587174526962
O           0.46007998849894    2.42412316105942    0.44722024182410
O          -1.50840344559347    1.01741101459665    0.49329787701619
O          -1.55826509009708    3.05247632192257   -0.81200640284377
O          -0.17096229683658    1.17965476266740   -1.53198222526139
O           1.88830747271935   -1.18270323633511    0.36984851843990
H           2.39180631257413   -1.98803837098648    0.49318965657265
O           0.28182668004636    0.08613663948294    2.08091967257783
H          -0.85457704307662    0.60250739696941    1.13982950622104
H           0.90621535128829   -0.44605625375488    1.53739539277671
H           0.74317967731352    0.89505448763893    2.31936060729827
O           2.38756997335526    1.24946669696290   -0.72615600855307
H           2.41426185491629    0.36308124009572   -0.31377644748393
H           1.82186429723214    1.15344649952768   -1.50582127394077
H           1.30860357623796    2.04774348042835    0.03588057772269
O           0.02886042407470   -1.51077252241652   -1.35932037214138
H          -0.10156954883243   -0.58022852074557   -1.61600265599488
H           1.18127657163525   -1.38855820064971   -0.32836143671599
H          -0.80594684804683   -1.76579991970299   -0.90005533512752
N          -2.29402944349626   -1.84202671745587    0.01712544660307
H          -2.42906878080536   -0.84858021313875    0.17753202494260
H          -2.26631237080860   -2.29713701795241    0.92091162790485
H          -3.10171620035271   -2.19100160091407   -0.48315724656969
