    23
        -45.36265645  Gyration_radius:  2.4553802286 Dipole_moment: 3.935
 S          -0.36300170630286   -0.84107763727339   -0.63096659070604
O           0.62989049288783   -1.85153416724520   -0.82693908671115
O          -0.28653308778911    0.30634564579719   -1.50092993383440
O          -1.76400229617439   -1.44863067307055   -0.72134945466415
O          -0.27036009608213   -0.32510110189098    0.82893134667335
O           3.35095208197022    0.19519521246598    0.72542393184545
H           3.33088407119066    1.10620524087691    1.02122060960850
O           2.39814163452474    0.12799815632490   -1.77826052232589
H           3.09186790050298    0.20583767886773   -0.22484711925199
H           2.38683176999480   -0.81518160562659   -1.96605768625808
H           1.46092108829444    0.38676054000287   -1.77634587632591
O           1.68392207919189   -1.62242560152940    1.68127737573595
H           0.49729703595206   -0.84807199915650    1.30491976165238
H           1.64436570317500   -2.23112899274791    0.93104577115906
H           2.40972595302973   -0.98556562052763    1.46265386902091
O          -2.98667949216887    0.67869643968551   -1.27000300254993
H          -2.40328178781215   -0.67281631761547   -0.95424049470330
H          -2.97699786213595    1.11164685725150   -0.37463520612416
H          -2.18823592449813    0.99068769427229   -1.71720796150781
N          -2.52566224277464    1.60055151088860    1.20228626158112
H          -3.16649774124136    1.33455344857460    1.93916329921258
H          -2.26394337804367    2.56697420015384    1.35050630541702
H          -1.68960419566695    1.03008111155663    1.29435437309807
