    23
        -45.36265657  Gyration_radius:  2.45562648733 Dipole_moment: 3.936
 S          -1.03937576823529   -0.35782743022181    0.16892042961292
O          -0.25510707792966   -0.89712221202832    1.25208919169918
O          -0.05075538894762    0.14921026693532   -0.91348775746080
O          -1.79371785498113   -1.49558946380189   -0.52142912057282
O          -1.93896628447835    0.70190992428264    0.50473994666818
O           0.80000384053442    3.22262355433530    0.88328437980649
H           1.74928911440568    3.09624282817897    0.85724862712031
O          -0.75645578449542    2.53221592309287   -1.14049365293959
H          -1.58427709269860    2.36251717067708   -0.67055529541669
H          -0.15587180670189    2.94431870077144   -0.46976920504775
H          -0.29246914396260    1.14169534441758   -1.12784212243235
O          -0.12777495746190   -3.31242532162575   -0.02587037851307
H           0.58022549634138   -3.07196436428302   -0.68170407027156
H           0.10137917598894   -2.84268632245505    0.78751726544966
H          -1.21914616870375   -2.34343674755268   -0.39673606347496
O          -0.21501226807973    1.44196038821757    2.60958307161264
H           0.46012311003659    2.62943182820695    1.59230240101282
H          -1.16102827747832    1.59062065165334    2.52089728454829
H          -0.07725080309368    0.54182363453018    2.26886711655588
N           1.61864578128358   -2.19451514427383   -1.72127655630122
H           1.21206458577615   -1.27325765234355   -1.58390415863344
H           1.54324685625376   -2.42460929856937   -2.70399615143500
H           2.60223072668199   -2.14113627797637   -1.48838519150975
