    23
        -45.36265657  Gyration_radius:  2.4555686431 Dipole_moment: 3.933
 S          -0.94472981955910   -0.49471719837424    0.31617565303265
O          -0.66343193324475    0.49599689055490    1.32541371852369
O          -0.04161448142364   -0.18298630677142   -0.90587821245917
O          -0.75118389022129   -1.85940586103625    0.69711621552433
O          -2.36592586096338   -0.28728462290645   -0.21058864107537
O           2.97863147722137   -1.60594512772493    0.58987804243115
H           3.53230407199644   -0.83567482780558    0.45585079374556
O           1.16464182867553   -2.34997271793598   -1.18542364669984
H           1.95579980897398   -2.16918811103002   -0.61823422503512
H           0.53748739817603   -2.80735773736332   -0.60883525414723
H           0.48098188002233   -1.05347079733766   -1.14739855928229
O          -2.47751293307872    2.19375151196139    0.18136506560033
H          -1.88012935795289    2.07409308405818    0.93213775162140
H          -1.90437372573581    2.50656099277254   -0.56890186427143
H          -2.56984657072350    0.71908231214733   -0.10854181745068
O           1.22333497735512   -1.02274347468655    2.52926440905464
H           0.67560950295891   -1.81292852989786    2.55168172241522
H           2.40924358768257   -1.40658265749318    1.36844083566968
H           0.62401973961449   -0.31945560815647    2.22674083021259
N          -0.69601814055771    2.59994292491537   -1.77719984664582
H          -0.29051202643483    1.67757122471799   -1.64434691134363
H           0.04138015297478    3.28505145191282   -1.67059561773536
H          -1.03815568577428    2.65566316544685   -2.72812044166608
