    23
        -45.36265645  Gyration_radius:  2.45548012046 Dipole_moment: 3.932
 S           0.63956807045814    0.17737839218921   -0.89113190261073
O          -0.24628057121042   -0.90267933537269   -1.24863512688757
O           0.56284217617818    0.35186219459351    0.64813567864260
O           2.08557705796320   -0.25307873809832   -1.14398327116581
O           0.38196114475990    1.43964069954806   -1.51203951138630
O          -2.64167356784954    2.11820399102123    0.58434408035716
H          -3.08571950216614    1.54822036719519    1.21342960376605
O          -0.08684657793168    2.75404050206124    0.83471266276430
H           0.34338520473821    1.35309957310880    0.84630997600265
H           0.14099023425327    2.91786217476908   -0.09058987632487
H          -1.07202151931475    2.65532340677476    0.84699164886056
O          -2.34446126434660    0.74392288616263   -1.69688239883805
H          -1.83876765457029    1.35701375443308   -2.23851907326261
H          -1.74232270680608   -0.00536703392069   -1.55063977095409
H          -2.63084495825136    1.63174705496128   -0.27206390034844
O           1.74420629395241   -2.71501796339106   -0.76330999346232
H           0.83990745061509   -2.61263788017523   -1.08977953919317
H           2.10902357792720   -1.27784933780580   -1.02656433295998
H           1.67081857303070   -2.72012349379947    0.22857626184849
N           1.35270444166720   -2.26843685718263    1.84838325564527
H           0.62732962598538   -2.76155421940255    2.35358547139826
H           1.02525360100120   -1.32275844853877    1.67092820051251
H           2.16537086983957   -2.20881171909920    2.44874184764949
