    23
        -45.36265657  Gyration_radius:  2.45554376493 Dipole_moment: 3.934
 S          -0.39859365113084    1.03732327452436   -0.07714771507925
O          -0.25083236960522   -0.17951218623394    0.87340396731164
O          -0.12999420806780    2.24536306784617    0.82233132032060
O           0.64503381741314    0.94178743024523   -1.06741353069677
O          -1.73973886073169    1.07599463501153   -0.57204867759275
O          -1.76528913847673   -2.55825404842110   -1.45996666379070
H          -1.05022605787482   -3.19550958656458   -1.43877614175006
O          -2.51358939536275   -1.21658642359277    0.69311896628124
H          -2.34599588607122   -1.84340977044447   -0.05469877068530
H          -1.17297261402130   -0.66687293946214    0.91476941847013
H          -2.87789674282947   -0.42097730790115    0.28169179613796
O          -0.90924518052116   -0.41268836749111   -2.81831384829541
H          -1.46575890940387   -1.82382029751131   -2.04394566072872
H          -1.65306265286098    0.19101675379277   -2.73357651095558
H          -0.18908555205357    0.01803812001495   -2.32722639149798
O           2.37613678834652    2.22561658747801    0.61784978849817
H           0.89343832825960    2.37453201061806    0.83729805513082
H           2.58604261079662    1.44851379627794    1.20195943482190
H           2.27286164506622    1.86135354204217   -0.27177694469444
N           2.49617335678640   -0.04033390825452    2.04145975861608
H           2.50421615213654    0.02983146394786    3.05114847914403
H           3.12967996009009   -0.78354606702235    1.77546373046335
H           1.55869857070098   -0.30785979921439    1.75439610996701
