    23
        -45.36265649  Gyration_radius:  2.45557357446 Dipole_moment: 3.934
 S           1.01288912161573    0.44656482859906   -0.10452574608689
O           0.83358899954938   -0.40338927947822   -1.25542604445940
O           2.31478022988000    0.06696398892161    0.60349293191022
O           0.97159285222981    1.85572020258881   -0.34520963363292
O          -0.09275773875463    0.08130961175758    0.92021156272707
O          -2.73758413910254    1.89869745124376   -0.84054911712851
H          -3.35383195807158    1.16661735519063   -0.88574675583605
O          -0.73184965642113    1.38779260203879   -2.54283385079926
H          -0.13781498212222    2.12726122786324   -2.38358992420538
H          -0.23656781488835    0.60805742112861   -2.23943484356431
H          -2.06384204440948    1.73876041232761   -1.54106373333422
O           2.33171514944005   -2.35741609208180   -0.06300336421117
H           1.87271263271215   -2.10949373700552   -0.87702020514093
H           2.46834774763158   -0.93535620678154    0.41279436025308
H           1.62562578812520   -2.70171856890362    0.54709663733897
O          -1.18819825145272    2.29698856437047    1.26587579609159
H          -1.88800923783543    2.24330235189999    0.56758943030772
H          -0.59132764619443    0.96070565146591    1.17991446440746
H          -0.44840020786028    2.76037629913737    0.85000352248115
N           0.23292429514674   -2.82517757320070    1.53385744678611
H           0.41072498294506   -3.01390236669281    2.51223549003256
H          -0.52049026706741   -3.42975622372854    1.23153909866754
H          -0.08422784512689   -1.86290793056447    1.45379247730411
