    23
        -45.36265648  Gyration_radius:  2.4552063999 Dipole_moment: 3.932
 S          -0.65955368651091    0.89700579084597   -0.05560216411800
O          -1.50724385975586    0.88664755242428   -1.20730736579289
O           0.73277868604002    0.34139597432397   -0.45395135719550
O          -0.37387560133918    2.33516806582135    0.38066505609689
O          -1.11840461270361    0.13865613861199    1.08171638748611
O          -0.60043559180596   -2.62406059126212   -2.12923558945807
H          -0.06803745808715   -3.25913735494748   -1.64851075698457
O           0.24166101786984    1.81526491684554    2.76241909384590
H          -0.10264401369312    2.28864835753697    1.37509305640512
H          -0.36852194230949    1.06611157208019    2.72815486395742
H           1.14704448700295    1.42850795391842    2.62108776952242
O          -2.44525130138094   -1.66112569409643   -0.44046366007453
H          -2.00761429628452   -1.15725576062351    0.26660263414241
H          -2.88387019705471   -0.99358691101365   -0.97601752864944
H          -1.32923350964667   -2.35707666813000   -1.52283189603573
O           0.35065050689661   -0.26214653594975   -2.84508667661294
H          -0.46811028664663    0.25144899016476   -2.87426873345298
H           0.70250422408098    0.10057521644824   -1.46920985753719
H           0.06428577794855   -1.20301077500302   -2.73070754490322
N           2.49454880028262    0.61995877637173    1.94371039891274
H           3.31170660143432    1.19535578919598    1.78379161126264
H           2.08664933318263    0.39793009496557    1.03968885355575
H           2.80096695249931   -0.24527489850143    2.37026339563841
