    23
        -45.36190166  Gyration_radius:  2.38962926632 Dipole_moment: 3.750
 S           1.09660242136882    0.67489502623560   -0.26032726227676
O           0.74472442699280   -0.19308892199274    0.84306280797154
O          -0.20779259477272    0.99295943112462   -1.04205539511510
O           1.53230116329888    2.04563638401171    0.23682738707130
O           2.09069065461735    0.13920094405362   -1.13442734670323
O           0.01440329351092   -2.76713953442105   -2.03632307850769
H           0.33593480316588   -2.42739537903530   -2.87304406168956
O           2.09616186661077   -2.43522310717484   -0.38576555784780
H           0.80109139482866   -2.81898300616043   -1.44635729146668
H           2.31584997461792   -1.55797433745209   -0.74815883665831
H           1.82196288654388   -2.26127632086629    0.51858771985774
O          -1.41731762964317   -1.15782554325439   -0.52473297118581
H          -0.85919149544139   -1.24510011333510    0.26002890858500
H          -0.81260272783458    0.17341275151075   -0.94170821321778
H          -1.05325075310565   -1.81987717510743   -1.16655679235563
O          -0.64959315895397    3.20243146787728    0.75473353137684
H          -1.09395338767682    2.47776692562187    1.29063548681542
H           0.69816240886091    2.59125406700808    0.50214106961942
H          -1.06358263953932    3.18865534064807   -0.11254015462748
N          -1.57394083332640    1.05436771476012    1.97578066107828
H          -0.72091665821685    0.52127060117283    1.81168700902494
H          -2.33211433312141    0.57158708318804    1.50890312753099
H          -1.76362908270547    1.05044572152174    2.96960925277172
