    23
        -45.36265657  Gyration_radius:  2.45546087633 Dipole_moment: 3.936
 S          -0.57465994579269   -0.57387228470555    0.76059421059056
O          -2.05482579549543   -0.46801028384537    1.13255178343165
O          -0.53285788117833   -0.16675278848807   -0.73553675068666
O           0.17193250057701    0.41475022814883    1.49845169392352
O          -0.12793945027471   -1.92681961452360    0.88336414338234
O           2.87520750578293   -1.37689033924417   -1.27865490795208
H           3.21289659075647   -0.56174916312959   -1.65194167096453
O          -2.05921697326074    1.98791796720616    1.67066191709993
H          -2.21955296419020    0.51693253417450    1.39246723044587
H          -1.13749315835118    1.90004353938125    1.94928365249589
H          -2.02540868375643    2.36029130738637    0.74903537312547
O           2.48674026664135   -0.97630575780897    1.34262681182703
H           1.78526812274264   -0.31562402245222    1.47187758886672
H           2.08851246712712   -1.80726856510839    1.61799410233066
H           2.83318014184068   -1.23982429048244   -0.30419298370962
O           0.42000271086521   -2.22594687907450   -1.77481304993759
H          -0.19150671127966   -0.98838301281885   -1.28122515353941
H           1.38211569358081   -1.99493345866310   -1.73822416695314
H           0.25164769829589   -2.74301024142395   -0.97528185231901
N          -1.71345065842319    2.57244394820174   -0.92041755143437
H          -1.08245403589463    3.31127585946657   -1.20418200296820
H          -2.53391091819378    2.61931127498426   -1.51122314000789
H          -1.25422650267811    1.68242405270650   -1.09321529693765
