    23
        -45.36265654  Gyration_radius:  2.4552127979 Dipole_moment: 3.933
 S          -0.53689685643426    0.95316783867752   -0.19622178541797
O          -0.96855753605850    1.56182461349865   -1.53174715302023
O          -0.56966641476660   -0.57643839646562   -0.45185291915590
O           0.83239303304347    1.31768603903500    0.07064565559326
O          -1.48731404239553    1.27114359090567    0.82389918058272
O          -0.32357584886629   -1.46961932589162    3.08637796906411
H           0.42520746494567   -2.05920160957331    2.98876932805443
O           0.56177918600232    1.03661446841759    2.74685643813400
H          -0.25216785445164    1.54703499601588    2.78997412308560
H           0.03819134936078   -0.55396117364027    3.05652259919441
H           0.87261349521631    1.15088416908974    1.83272434647064
O           1.30198343938325    1.57200945124503   -2.61191347967198
H          -0.11467588039324    1.63830312331297   -2.10592193705586
H           1.68941924313759    1.68905007531035   -1.73386185551230
H           1.39241573576433    0.60285493076644   -2.81653963616141
O          -2.22820472077693   -1.32100566711946    1.25773516770422
H          -2.53334035906127   -0.41462160168603    1.39998225288384
H          -1.28309487863273   -0.99234993178710    0.18662946477457
H          -1.61181916477324   -1.50964293500969    2.00939726466789
N           1.26260190430141   -1.10231396771195   -2.75365933949325
H           0.63671704653900   -1.16821380113993   -1.95560386036949
H           2.09359125585934   -1.64154772246615   -2.54591359509140
H           0.80240040300292   -1.53165717382780   -3.54627822927669
