    23
        -45.36265662  Gyration_radius:  2.45571299672 Dipole_moment: 3.936
 S          -0.17029492964357    1.09617743129635    0.09002024608117
O           0.41597350098101   -0.00880216527360   -0.82730378810426
O          -1.15224667478212    0.47396703213449    0.94306087399782
O           0.90642582355297    1.76832937619989    0.74883105441742
O          -0.87546265223001    2.04708007358814   -0.87903273538531
O           2.58745165576790   -1.41715741886158    1.76044587293647
H           2.28361335533166   -2.32129530974826    1.67082695312405
O           0.62765356123359   -0.00608083265084    2.92257324083321
H           0.98693243784281    0.88598734947931    2.91209790231397
H          -0.14172241728318    0.03452139732809    2.32951586559925
H           1.89575670441084   -0.94116142134303    2.27532398988093
O           2.85350194399998    0.18498232234960   -0.32733295971690
H           2.72803367444654    1.04416634489203    0.09812361579841
H           2.91930015288100   -0.46660529747768    0.41516165297473
H           1.45525970049163    0.01716147981089   -0.73532599491691
O          -3.05914911646239    0.80538432007904   -0.99072562294782
H          -2.90670921277301    0.51012585156437   -0.08278795741776
H          -1.82143172434819    1.66265978424060   -1.02661160786144
H          -2.78794739326898    0.04272899663709   -1.56877202841400
N          -1.87888939381388   -1.18711626759248   -2.33661752712658
H          -0.97508737498110   -0.97439044730005   -1.92340690719535
H          -1.79053875070092   -1.09841565558130   -3.34096728401344
H          -2.10042289062330   -2.15224694392121   -2.12709684482643
