    23
        -45.35981436  Gyration_radius:  2.32612441457 Dipole_moment: 5.670
 S           0.90040781907524    1.94923909545511   -0.01300291875880
O           0.76758450587075    1.82991869178814    1.53289547492545
O          -0.56825383409310    1.73139062296011   -0.48248847198777
O           1.32032404816818    3.23981748815155   -0.40642740126787
O           1.69081915682194    0.82960911277811   -0.46989767123837
O          -0.07861267268502   -1.93788453948350    1.15748512145062
H          -0.31628281076410   -2.85659646586220    1.28695038066341
O          -1.60221581716481    0.24491885405943    1.33800286662206
H          -1.03171380283772    1.13702986349285    0.18804077470393
H          -1.12738434987643   -0.61680225948628    1.31631660755120
H          -1.30583838921045    0.70400228260109    2.12885847540509
O           1.99865785773914   -0.36348190431742    1.91379199400753
H           1.27780664427988    0.99729681682633    1.81091098007096
H           1.30860848754934   -1.04753739849160    1.80264250551565
H           2.40184771613067   -0.26045301904167    1.03976035471420
O           0.54362934359088   -1.47916820175408   -1.28329076138408
H          -0.25423073521304   -1.16939616417867   -1.77352036251184
H           1.08237443261111   -0.67840985301297   -1.15161224987713
H           0.15955358491354   -1.83699425222278    0.17624198133986
N          -1.60740493047209   -0.28845224176090   -2.44745581209904
H          -2.53580926885978   -0.53908415529476   -2.13123252415442
H          -1.62941490764045   -0.22110224023575   -3.45711719718667
H          -1.39445207793955    0.63213985702952   -2.07585213650200
