    23
        -45.36190145  Gyration_radius:  2.39005914385 Dipole_moment: 3.749
 S           0.84537567895473    0.06761970227880    1.00530105618373
O           0.86553950082129    1.20786827603891    1.86479249387211
O           1.00013711532058    0.37943895204963   -0.39957666459107
O           1.88963222144194   -0.94053714561238    1.46252756507131
O          -0.48423233891882   -0.71935473758368    1.16813225371189
O          -2.09694580726162    2.71176416950705    0.25470674719342
H          -2.27941223183262    2.77374411493218    1.19376049464259
O           0.53191218624480    3.19002099565717    0.09063821120591
H          -1.17806362599758    3.04544010420864    0.13590448950188
H           0.73958589847174    2.65270813540129    0.87638509903781
H           0.94280880053767    2.71896267180338   -0.63919401581284
O          -1.70714217708635    0.32169134429116   -0.77529207852689
H          -2.04294425914008    1.19053455838828   -0.43604197395186
H          -0.84602970580432    0.52723207606618   -1.16424309592600
H          -1.11432129042470   -0.37813429201579    0.43728614679124
O           0.98040924157712   -3.14442794537598    0.63600791010526
H           0.76371366806301   -2.88500688516673   -0.31037352126593
H           1.61524928515654   -1.88236469287623    1.14375880079405
H           0.14262082071954   -3.17405739487670    1.10602459997166
N           0.39806208474444   -2.09591443846080   -1.71341236412650
H          -0.58823443782831   -1.99764771991717   -1.92176015294125
H           0.86936101321205   -2.39421178147657   -2.55757286375929
H           0.75291837900167   -1.17536808736919   -1.45775912727671
