    23
        -45.36265663  Gyration_radius:  2.45540266484 Dipole_moment: 3.934
 S          -0.03357137312725   -1.10747290975691    0.10478773630936
O           0.83290917707258   -1.58973172342241    1.13519681638367
O          -1.21595849424971   -2.05978626018686   -0.08282319336167
O          -0.68845349965046    0.21584885125451    0.58010407650739
O           0.57775663863085   -0.85181762488728   -1.17585234141380
O           2.46275623513150    1.73830596904393    1.64547742386294
H           2.36008378906091    2.54925612030388    1.14585501721250
O           0.40971728230094    0.53342876861505    2.79844538268370
H           0.72760612906851   -0.37976011583046    2.80404362407973
H           1.18719493149177    1.07841648051353    2.51785675620172
H          -0.33306366030299    0.42203731161493    1.53962951550889
O           2.97852520120712   -0.23372900437111   -0.09418195927769
H           2.20507937233666   -0.37507684217823   -0.66612577977072
H           2.74708608403858    1.04939125027859    1.00145972766680
H           3.00044658148439   -1.00738008296250    0.47662939583444
O          -1.80138612059392   -1.36148875481020   -2.42629393368257
H          -1.57603576545964   -1.89213014855798   -1.03503178329894
H          -2.23520468249818   -0.48691223720282   -2.23616214639050
H          -0.86654481225145   -1.16161609203827   -2.57088047706980
N          -2.65423794312453    1.01242851713271   -1.52519454128147
H          -2.44252610980183    1.86239476547537   -2.03234804041290
H          -2.03703770753518    0.96453921968440   -0.71920305579301
H          -3.60514127311972    1.08085455214235   -1.18538823054164
