    23
        -45.36265642  Gyration_radius:  2.45543306214 Dipole_moment: 3.936
 S           0.65214371585971    0.90104139335076    0.03239650913262
O           2.00658332937529    0.58895991096274    0.36906759294888
O          -0.26596731916770    1.03286100890890    1.13643034099960
O           0.59589845669601    2.16824097734479   -0.82269082111977
O           0.10051447953249   -0.20763551974744   -0.90171507714875
O           1.21662595534952   -2.96636912158317    1.23096040996773
H           0.36552090724078   -3.40239115054894    1.28819514288458
O           2.03598823401751   -1.78085898722956   -0.98708306823354
H           1.79993980717539   -2.37120389002117   -0.22814825294118
H           0.86023373180901   -0.90763371394882   -1.05090336401637
H           2.63138562440131   -1.11519164076435   -0.61650990801912
O           1.08559867162750   -0.72183039577140    2.68911370655942
H           0.44592751215222   -0.10999927088510    2.28689489432514
H           1.17897072218823   -2.20083382624671    1.84954191822752
H           1.94254461273304   -0.31939486760469    2.52005190554538
O          -1.79398144997373    2.76941881871613   -0.32439374218850
H          -1.68737460957182    2.36136911992905    0.54553674422004
H          -0.35684610407281    2.54971528730416   -0.71539169825795
H          -2.25664783143818    2.08909814814157   -0.88332647227705
N          -2.63813192547166    0.65303286123840   -1.73188864268929
H          -1.77100715383024    0.15160396380816   -1.55983964172706
H          -2.74532892151732    0.75534185925960   -2.73306756780097
H          -3.40259047523452    0.08265903541929   -1.39323088861379
