    23
        -45.36265652  Gyration_radius:  2.455782887 Dipole_moment: 3.931
 S          -0.75523424616220   -0.79971485215961   -0.16212082685885
O          -0.88182984056010   -2.16227546919421    0.52174023052329
O          -2.05011736257908   -0.27881796077145   -0.47358926254008
O          -0.09912649485941    0.10242023587145    0.91569650515026
O           0.17223485844205   -0.90480479064622   -1.26109802499811
O          -0.81030959647120    3.23128619853249   -0.84554554438386
H           0.08737712517562    3.56575988810955   -0.83351181556662
O          -1.83174968901621    1.87840197157835    1.18510213590672
H          -2.49166733318533    1.34524420225299    0.72112162642180
H          -0.77246462586536    0.86554795934660    1.14718751033071
H          -1.50379141698132    2.52862378226203    0.51444427415034
O           1.42945432674669   -2.99250654103823   -0.01775291709849
H           0.01894930490259   -2.64460105706653    0.37875266018625
H           1.40058595876044   -2.46532433927709   -0.82770247555342
H           1.95516577991568   -2.45408665081677    0.63252319557801
O          -0.90196177318393    1.19510781261698   -2.58577428499792
H          -0.84430756080451    2.55270755880493   -1.55868302388983
H          -0.35606695908535    0.46010537667330   -2.25865770330010
H          -1.80698227220676    0.88515958489395   -2.48722937736067
N           2.48349662862446   -1.19936980209672    1.67000440536557
H           1.69228455980400   -0.57292077347422    1.54983783173524
H           3.32472307725625   -0.69280007546550    1.42462309686703
H           2.54133755139288   -1.44314226899367    2.65063178439380
