    23
        -45.35981436  Gyration_radius:  2.32612425861 Dipole_moment: 5.670
 S          -0.79606031659255    1.99318957735425   -0.06328290304220
O          -0.85860101467176    1.83056392312696    1.48310690771222
O          -1.62900225492562    0.77155997959884   -0.55182512909803
O          -1.42973261722365    3.18085171946309   -0.49295918440447
O           0.57663437198129    1.79368822954660   -0.46699504981017
O           1.30932608075125   -1.37656198707225    1.22150606842493
H           1.80806799242097   -2.17909305407091    1.37796221838542
O          -1.32828294687906   -0.98222819053925    1.29929232437971
H          -1.54097352218196    0.03336850335234    0.13007866310029
H          -0.37585155793272   -1.22941838337407    1.31579921683088
H          -1.48756841726323   -0.44339874543287    2.07925473595483
O           1.56476234993844    1.22212385382845    1.96139183347774
H           0.08577809635496    1.63212886459766    1.79877792725146
H           1.59156843419281    0.24966430588440    1.86111545117864
H           1.79964137602880    1.57693156200007    1.09187892402117
O           1.49519020557062   -0.63422775391691   -1.22172788049927
H           0.74072857038415   -1.00618648891806   -1.73679977368963
H           1.27899557750598    0.30866997011052   -1.10770170147698
H           1.43644480057447   -1.14421263675256    0.24191616569029
N          -0.80285549144475   -1.39118479201909   -2.46511999857527
H          -1.33876945301174   -0.60023383275604   -2.12143308193249
H          -1.27036933640702   -2.23472067282040   -2.15750689459918
H          -0.82907092716822   -1.37127395119279   -3.47672882928195
