    23
        -45.37330139  Gyration_radius:  2.31141884758 Dipole_moment: 5.656
 S          -1.08134515690981    0.64010247128696   -1.04191238856437
O          -1.31080391539409    2.13171833786186   -1.43067428093164
O          -1.51805157234745    0.46410618912585    0.33967040797242
O          -1.81924331313997   -0.18871844673345   -1.98258249609903
O           0.35481993996751    0.36073687374994   -1.16272502101345
O           1.66050584561954   -0.99708638335097    2.03881646389013
H           1.49767714475630   -0.80024174404635    2.96302735126471
O          -0.54143195473844    2.86918056760421    0.96414158827745
H          -1.04260547847464    2.64866398168114   -0.62932030394304
H          -1.05357623270085    2.06267125367352    1.14275792979460
H           0.38609492144068    2.59066019202131    1.03191017893459
O           1.78825187295925    1.37037180240423    0.70536651557215
H           2.62041349406904    1.63238103935481    0.30789750221068
H           1.24079474167243    0.98352177283569   -0.03714703903238
H           1.75719751402168   -0.13262369432390    1.58822692438764
O          -0.59762153803344   -1.93526344423472    0.92332773702093
H          -0.38955047010570   -2.24400673268405   -0.50675687200873
H           0.26373297398593   -1.70983080366668    1.34438222047200
H          -1.06310808820467   -1.07176031391946    0.83146085710988
N          -0.29678764617015   -2.22867732223859   -1.60688976231256
H           0.61136651289026   -1.82853853825531   -1.83694448312408
H          -1.01896403442982   -1.48589030914810   -1.90109462608768
H          -0.44776556073270   -3.13147677900176   -2.04493840378846
