    23
        -45.37330144  Gyration_radius:  2.31141505485 Dipole_moment: 5.661
 S           0.04485656752476    1.46055277096551   -0.72701979430858
O           0.64250530390760    1.36553931408509    0.60123399538814
O          -1.00903601089500    2.60837108594733   -0.69724054413890
O           1.01418672545726    1.76698577109091   -1.76756039742597
O          -0.65736751769266    0.21536312353684   -1.06105776751310
O           0.00238890111196   -2.35650407433351    1.53428298473287
H           0.08047003039771   -2.33610405092554    2.48974088508208
O          -1.72979114873584    1.87739884977335    1.71468497662648
H          -2.08805931105506    0.98076332925352    1.61387300711559
H          -0.76567728713164    1.75600051535051    1.73332438997756
H          -1.46438538799776    2.51457755664066    0.17747458633271
O           1.98482822412121   -0.89752911270501    0.45510341527396
H           1.32924015024645   -1.53062983706217    0.82855131023889
H           1.89617187091426   -0.89896379789267   -1.01991815528233
H           1.60187528074446   -0.00772379343544    0.63498596564907
O          -2.07607768008175   -0.74267944523024    0.84505466116368
H          -2.85313268807249   -1.13606308333698    0.44439675893501
H          -0.78312763592017   -1.81473970523702    1.31250633512602
H          -1.53733695957003   -0.37068536330638    0.08873317459708
N           1.67614328601929   -0.69936423515862   -2.08339755609602
H           0.76904617754150   -1.11115259855490   -2.29619205660326
H           2.40401271948858   -1.00914970299045   -2.71892180281347
H           1.51826636968155    0.36573646351990   -2.10263837205103
