    23
        -45.37330142  Gyration_radius:  2.31153061627 Dipole_moment: 5.661
 S          -0.93075639666597    0.89899366081050   -0.99504423660907
O           0.39339413159933    1.13339353214519   -0.40599288602014
O          -1.55019682612201   -0.28022490602053   -0.39819046870441
O          -1.82522554647639    2.13085540400187   -0.66120289086134
O          -0.81062844751577    0.80905250190437   -2.44202921180794
O           1.32095986791902   -1.69438438594151    1.81542869666094
H           0.83856084291391   -2.23911371487497    2.43989706982750
O          -2.25798522343726    1.16101077458495    1.73514790124451
H          -2.27087354990705    0.36565500875388    1.17669221932308
H          -1.38787075842724    1.14443061964417    2.16544480173306
H          -2.10926849399835    1.99330320665943    0.27782733126085
O           0.47893246142908    0.87181380988597    2.14122913360917
H           1.10035103453459    1.52457030880640    2.46815085612406
H           0.45486295201092    0.99078453214084    1.14825730413415
H           1.04385410693059   -0.77064792048060    1.98722766403031
O           0.33933296256055   -2.09957665909481   -0.65372460820937
H          -0.47828204228629   -1.55835346967082   -0.55752382957810
H           1.05492299829061   -1.27186837558725   -1.64727393569900
H           0.78722125755000   -2.03166950958308    0.22078293904550
N           1.41386671064847   -0.47878538163354   -2.32628191432677
H           1.90472552662564   -0.82770530109602   -3.14298472121981
H           1.97711315819011    0.16895375337836   -1.77782917696583
H           0.51298927363151    0.05951248126829   -2.56800803698438
