    23
        -45.37330136  Gyration_radius:  2.31146003639 Dipole_moment: 5.659
 S          -0.72785565410875    0.70336673674994   -1.28093844767694
O          -1.37654516615360    2.11598393361190   -1.39228103918020
O           0.60811803094366    0.86807912387721   -0.69490376231004
O          -1.56863812846834   -0.10881471296086   -0.40693881266125
O          -0.60638712047138    0.15699612591560   -2.62367533772713
O           0.94676010406970   -1.26702358627178    2.32566947426889
H           0.36083662100308   -1.50082101267882    3.04772607546681
O          -2.01982263860502    2.01542256714316    1.14659168631584
H          -2.17628258053649    1.10312191634594    0.85022201891850
H          -1.17497046462004    1.97671821258071    1.62333401736117
H          -1.69469382536560    2.32369177906920   -0.47737263414168
O           0.60553113146195    1.38267861651820    1.81471008758034
H           1.33588497589282    1.98203228644011    1.97744498574036
H           0.61872499507875    1.19644191064234    0.83189508416066
H           0.84806382336933   -0.30112749734816    2.19525904073785
O          -0.05754183822639   -2.22461211438952    0.02396313716987
H          -0.75830272236970   -1.54385149692514   -0.10334392515231
H           0.81710272282667   -1.87898818115354   -1.11590415011736
H           0.38201548299590   -1.97410986240518    0.86899758129268
N           1.33026205214566   -1.40671579409605   -1.97186457612945
H           1.99807427861157   -0.73288042029678   -1.60090501975727
H           0.55182275148206   -0.81726047134964   -2.42620926701111
H           1.75784318904408   -2.06832803901538   -2.61147621714373
