    23
        -45.37330141  Gyration_radius:  2.31153068489 Dipole_moment: 5.661
 S           0.18849470059621    1.59376076266226   -0.29885134560868
O           0.76409733213485    2.07477139629543   -1.54526052437434
O          -0.41785241922028    2.81572895513232    0.45505689257542
O          -0.90543254877302    0.65939047340794   -0.59137215566482
O           1.17049849086403    0.96635581095046    0.58004685296070
O          -0.10849491293437   -2.70467007288992    0.76409749262980
H           0.30897118265177   -3.01956363134277    1.56782248867042
O          -1.75274822198324   -0.64699104974887    1.44315158369907
H          -2.69874680303275   -0.75508132721813    1.33123952854074
H          -0.73528243758456   -2.00337786861476    1.03801500129802
H          -1.44013409256964   -0.13254997834300    0.64419797474865
O           1.67890465859094   -1.29831979622941   -0.66815340402036
H           1.05161203991587   -1.90861486309991   -0.21642184167786
H           1.07078153855252   -0.79101617193014   -1.91591645695404
H           1.65165382295909   -0.47187579365858   -0.13245412442346
O          -0.39923412293785    1.44141301513101    2.68722677119870
H           0.43202694705030    1.17114161167970    2.26230514034759
H          -0.53593213972444    2.50691172459390    1.38883905847084
H          -1.00526922484987    0.69836686656605    2.53534016308490
N           0.54936851534916   -0.21463418440883   -2.70007553007384
H           0.88245293892984   -0.40389013414935   -3.63968282661176
H           0.70024530808108    0.80600487682781   -2.39157935141297
H          -0.44998054206444   -0.38326062161386   -2.59757137740348
