    23
        -45.37330135  Gyration_radius:  2.31150665125 Dipole_moment: 5.662
 S          -0.15811266048799    1.53117441562967   -0.54463910673508
O           0.07030450600677    1.87292583769346   -1.94005894409365
O           1.07093028302698    1.21000239778831    0.17421033530908
O          -0.81292390128280    2.76214609897994    0.15195872820139
O          -1.10520469909111    0.41251033586537   -0.46162684945949
O           0.52261611454447   -2.52366009282241    1.12538033293513
H           1.13720074964184   -2.63427719421297    1.85310373656399
O          -0.11958430852167    1.80035512364130    2.48999831564931
H          -0.60219695846952    0.96243482297912    2.57613724512510
H           0.64774203693376    1.58559819054291    1.93343925591980
H          -0.69158220106201    2.60124844203006    1.12181668705035
O           1.72094952341379   -1.13488826288141   -0.83856865989707
H           0.80175335761007   -0.93933786753716   -1.97900547186759
H           1.65228908127553   -0.24275900578028   -0.42624985358855
H           1.31142160464632   -1.74473335321341   -0.18240184612775
O          -1.29703574586733   -0.64217041959082    1.86536075216873
H          -2.21247236694720   -0.90356869021310    1.97846733297385
H          -0.15338099239561   -1.88493293897915    1.43322244821964
H          -1.24136689420988   -0.22952853202202    0.95579143371285
N           0.04402583605230   -0.58534926775552   -2.69988205232595
H           0.21588561509656   -0.88050369909353   -3.65542648244646
H           0.06912388099447    0.48378872561758   -2.57288594739622
H          -0.87038187090492   -0.87647507666319   -2.35814137989103
