    23
        -45.37330133  Gyration_radius:  2.31149589954 Dipole_moment: 5.662
 S          -1.39921817180345    0.05710112366199   -0.83943911554565
O          -1.20709255351865    1.07097417402866    0.19287985972160
O          -2.74953828313616   -0.66710944270135   -0.55423399797262
O          -1.46251464042836    0.61470473078814   -2.18153709339221
O          -0.32961062773491   -0.94643089254302   -0.77438927406280
O           2.26555580284297    0.10972904170467    1.66238608076120
H           2.24141822793094    0.53645626493251    2.52075671211178
O          -2.24803920741499   -0.57737481529610    2.01715116609874
H          -1.92034938409021    0.28253657830015    1.70436434389852
H          -2.77701649370242   -0.77783766427985    0.42976616038848
H          -1.44865454204256   -1.11404940986814    2.14143244603613
O           1.29695365681924    1.79846629739962   -0.19035236977952
H           1.31351104383688    1.17400415008329   -1.52960467976327
H           0.34128734247975    1.68918540118548    0.02270758904808
H           1.76358878524197    1.21701970895346    0.45330486464941
O           0.25379722728433   -1.72018463183616    1.59736935227781
H           0.47642456180205   -2.65097319593247    1.54048079772871
H           1.57108283831915   -0.58091628230177    1.68079677230842
H           0.02488957164697   -1.43659542129520    0.66577600237133
N           1.09560480452905    0.62033492918209   -2.45968854643770
H           1.57159305231894    0.98666489691909   -3.27762116227174
H           0.02251841823749    0.67704935677389   -2.52983649347242
H           1.30380858057659   -0.36275491786491   -2.29246939469831
