    26
        -50.46821129  Gyration_radius:  2.44289713234 Dipole_moment: 3.025
 S           0.26939498214331   -0.33467562854893   -1.85713241142015
O           0.17569482897185    1.02996240300286   -2.33721429974825
O           1.28765774416632   -0.48968190348444   -0.83610929855129
O          -1.00844811979832   -0.89000469589843   -1.43795979713344
O           0.72047696519389   -1.20761180109865   -3.09949310830689
H           1.41853702277816   -0.66380544964747   -3.44591712403447
O           1.81628260358302    1.86548185130661    0.44466553283852
H           1.05831859502823    2.44425372631737    0.29657162861383
H           1.71389722272300    1.14613245402809   -0.20234816788727
O           1.94928445602852   -0.42994634517722    1.82968356951695
H           1.97529826336900   -0.81201345518845    0.93806437972926
H           2.04353684491864    0.52695464301116    1.65055929254245
O          -0.62187288486735    2.79481959719940   -0.59623278272322
H          -1.02698075789713    3.53727098778496   -1.04669994678229
H          -0.31714490193689    2.17471710490953   -1.30651220928279
O          -0.86772026609294   -2.85304713082062    0.28680399214839
H          -1.64000118180804   -3.38628768874300    0.09092773733525
H          -0.82668222178517   -2.17191686686264   -0.42677300260361
O          -1.90399410657368    0.68706539363194    0.52035896572676
H          -1.52438998828646    1.55479038106271    0.28691471634209
H          -1.73471596069004    0.12378586467689   -0.26200988552958
N          -0.60055502497762   -0.92918310275927    2.13436669803940
H          -1.13437445628889   -0.17462498855563    1.60724721509097
H          -0.72196747458041   -1.80343708123803    1.56987687215381
H           0.44656415957671   -0.69557042525512    2.11821322907444
H          -0.94609635289597   -1.04342785364806    3.08014819485183
