    26
        -50.46920714  Gyration_radius:  2.47122356761 Dipole_moment: 3.869
 S           0.87851820912991   -0.30942761299045   -1.51934035201629
O           1.13582777401808    1.11942979401496   -1.53392540671139
O           1.30267674272778   -0.91503608408892   -0.25702570962870
O          -0.47568477395046   -0.66723372071325   -1.86525197878202
O           1.80666073013221   -0.93444126809947   -2.63564164319852
H           2.64980071091535   -0.53355408687492   -2.45183299460664
O           1.70798619464494    2.96348214056969    0.38511739473446
H           1.64370155725383    2.38202342076218   -0.39170998312406
H           0.88897454934658    3.46373310218033    0.40305871856127
O           1.46502135845211    0.74635085055887    1.94422462865188
H           1.58154414152661    0.12981761626276    1.20356250849695
H           1.68179548793102    1.62422818338282    1.57536504983340
O          -1.26128940598033    1.62000491954751   -0.47871053016820
H          -0.37328175626476    1.53055791886682   -0.87277092945090
H          -1.82655500445526    1.10266283610234   -1.05649302293397
O          -2.10898439300061   -2.53823425504939   -0.98264510613249
H          -1.49029681605291   -1.92655351166494   -1.44121280375072
H          -2.98390454386555   -2.33455825045466   -1.31658660766952
O          -1.16885837220808    0.58712230700777    2.02409823273015
H          -0.20865132381641    0.75189446461616    2.20241260304645
H          -1.34369610760512    1.07330074762235    1.19265993836075
N          -0.71249774689018   -1.81483108894306    1.19139008574923
H          -1.41332287372425   -2.19425034986034    0.52197666159008
H           0.14634560449957   -1.58013949208229    0.62793118484374
H          -1.03162476823936   -0.86175477534023    1.61186535744129
H          -0.49020518452276   -2.48459380533844    1.91948470413351
