    26
        -50.46658237  Gyration_radius:  2.49153224295 Dipole_moment: 2.501
 S           1.35169675148306   -1.62326319415359   -0.43513337933545
O           1.29644143547037   -1.03855826592809   -1.76035115504358
O           1.69609315423212   -0.67280905478323    0.60437626929468
O           0.13952422155283   -2.36908784886158   -0.11763462649452
O           2.53140951767393   -2.67942635989739   -0.47110726723712
H           2.31971472441756   -3.14587905728607   -1.27208989388120
O           2.39936172009828    1.83182383030292   -0.03748049546115
H           2.21263421629999    0.87866810988486    0.08277840032611
H           3.07814882018869    2.05003982552584    0.60288320024198
O          -0.03080099160309    0.61020581480485    2.21792688521103
H           0.74093673912160    0.14333076043689    1.84547144205127
H          -0.18908646893340    1.34443124414293    1.57840350084805
O          -0.28002430745697    2.24891435972240    0.11590181739053
H          -0.46130587568807    1.69542331703677   -0.66390345252683
H           0.68417179629661    2.38561672389195    0.07053151424202
O          -2.89955876614980    0.56372010277026   -0.44704983318503
H          -2.25578992462459    0.46690013408742   -1.17339472601739
H          -2.72723312795673    1.43376664875806   -0.07411469200230
O          -0.70759853626252    0.56129430514991   -2.03941223026536
H          -0.58128322229398    0.94841316304129   -2.90757736227072
H           0.04251872001530   -0.08092657915129   -1.92689027123044
N          -1.69968095226011   -1.12745879813154    1.25418616613545
H          -2.24801131614032   -1.72718977519582    1.85947823562691
H          -2.30726065068356   -0.57424157706058    0.60171011039738
H          -1.09776501115719   -0.42588667796363    1.80701261674216
H          -1.00725268471698   -1.69782117065992    0.68547921600654
