    26
        -50.46372097  Gyration_radius:  2.59059707448 Dipole_moment: 2.110
 S           1.02778918137308    1.73778851583296   -0.82632594741985
O           2.25170472793531    1.29497185993309   -0.17077439728964
O           0.92776506723358    1.26776939597902   -2.19312878718220
O          -0.15865599395412    1.43326879976341   -0.04609976733421
O           1.10624706801894    3.32006670638331   -0.88973590144943
H           1.90560609231094    3.46033711513049   -1.38678348874759
O          -1.93893731338551    0.15686888685880   -1.48002852951539
H          -1.29840579569043    0.68750883103971   -0.94852110452633
H          -2.04144576708308    0.62799512083057   -2.30862435896889
O           0.35603881523705   -1.30006551367175   -1.93694947813891
H           0.64746245807902   -0.40459534643787   -2.21632756451321
H          -0.59028453955287   -1.18488148232550   -1.75391398642920
O          -1.06706510152664    0.15142780968241    2.18363491603362
H          -0.71240083683289    0.71871278919221    1.47813550412694
H          -1.87527127840776   -0.24883048110984    1.80780338749757
O           0.76365494059052   -1.65269660860821    2.52666151303611
H           1.24467509288039   -1.36488420908598    3.30389385564033
H          -0.00350885148410   -1.01343537506604    2.43669004940263
O          -3.24242313031816   -0.73800088634324    0.77647625133514
H          -2.86548680734144   -0.52813595422616   -0.09451792042862
H          -4.00585336624909   -0.16914870629529    0.88769973115373
N           1.92603907671096   -1.26884623034885    0.17911540686571
H           1.47515911076053   -1.47810406840689    1.11639014703314
H           1.25161969681238   -1.45517454707456   -0.61968819810505
H           2.14523566930466   -0.23220260862579    0.11680392766567
H           2.77074177457961   -1.81771381300046    0.05811473025857
