    26
        -50.47367819  Gyration_radius:  2.44014376665 Dipole_moment: 3.160
 S           0.47297344498896    1.15355327714299    0.86280309262332
O           0.88073604914418    1.77794675596328   -0.38174934258776
O          -0.93211181185296    0.71873891782996    0.78514706046521
O           1.32681331431187    0.04407701505800    1.24651023823103
O           0.55684565927853    2.20086085992417    2.01396710677951
H           0.03172990190316    2.95198020251439    1.67705936332549
O           1.09911110963485   -2.53862347407257    1.81199732247809
H           1.28129127832314   -1.57650446900060    1.81456494382570
H           1.79228163701596   -2.92901313873649    1.27451258370332
O           1.93411279233524   -0.80114365099212   -1.21035146844365
H           1.80208733538807   -0.52221635648556   -0.28377075285347
H           2.13219058771775    0.01521730634602   -1.67536454534318
O          -0.84317168041384    3.67020213494691    0.30730141137022
H          -1.69784632565636    3.26585254070274    0.13808996840289
H          -0.19196143214553    3.16701757231850   -0.21520082444321
O          -0.47619290085984   -1.74216246142144   -1.96518923176868
H           0.47580327947371   -1.54612878009409   -1.83005571397617
H          -0.88326774469681   -0.86951261875858   -2.15678356489064
O          -1.27915250042340    0.82468223169137   -1.86683282069200
H          -1.31144886683856    0.81627006473910   -0.89095624659232
H          -0.48906256717429    1.33697965052262   -2.06655646351235
N          -1.16029287642053   -1.90620493522532    0.53489379661821
H          -0.94939235021687   -1.97536824635946   -0.52443473795369
H          -0.36234753283513   -2.32954306308204    1.07136510019780
H          -1.16206722809133   -0.87499307008944    0.75117392051207
H          -2.04766056189059   -2.33196425537941    0.77785980452274
