    26
        -50.46999579  Gyration_radius:  2.51771201007 Dipole_moment: 1.005
 S          -1.80992858060188   -0.44917497488891    0.26177516552275
O          -1.85986710916615    0.99488659909667    0.14902194299401
O          -1.27715893557112   -1.05672890874003   -0.95574070618155
O          -1.11655184416672   -0.91760042045415    1.44359317871489
O          -3.30401861403356   -0.94471259005019    0.40412880334631
H          -3.74911986810561   -0.50157938883905   -0.31137458629592
O           1.87824731181043    0.17448338340805   -3.05686517874042
H           1.88338821121186   -0.32662502076246   -3.87305834606933
H           0.99239030176691    0.59414878325097   -3.00015947039358
O           0.32254466592072    0.59984085926355    3.08752736384332
H          -0.20388401112406    0.98439421268073    3.78936376048838
H          -0.28739009369979    0.04119530931586    2.55958877155531
O           1.47252282250747   -1.83543679103126    1.79409967538690
H           1.67522852714404   -1.21415694819058    2.50090761880564
H           0.50371033220554   -1.81898673703157    1.72404282747705
O          -0.66346507359424    0.99409005431712   -2.58360310302916
H          -0.99143205114949    0.21194778148992   -2.10133788598306
H          -0.83012491316955    1.73728154064995   -1.99823507950464
O           0.61531246796511    1.79435594591843    0.64866492157372
H           0.71016922705977    1.58980972390565    1.59588033931690
H          -0.33983375568733    1.68115776051830    0.46464745235715
N           1.30501225036546   -0.48111901182803   -0.51572242470824
H           1.83786225324112   -0.40188815595785   -1.40147030654940
H           0.35104777558709   -0.84132324795691   -0.73821288876495
H           1.71318646014985   -1.09669973432230    0.21419050774614
H           1.17215225312273    0.48843998623258   -0.10165236291488
