    26
        -50.47074732  Gyration_radius:  2.49945502101 Dipole_moment: 1.693
 S          -0.74412398975414    0.17479398614664   -1.82093052570074
O          -1.24729249883943    1.27816815802049   -1.00445166412351
O           0.70764682978786    0.11729926545314   -1.79415345526500
O          -1.37620002358177   -1.08489908447545   -1.50764722875933
O          -1.14942414938613    0.51099848365634   -3.31355658058996
H          -0.69490989658744    1.33057972187285   -3.47876403008660
O           1.68236229248127   -1.41933550979132    0.13056857531187
H           1.45291626466118   -0.83837607195549   -0.62630745926737
H           1.16615780640040   -2.23575647271841   -0.03116936074921
O           1.08835053133040    2.25655826426191    2.17452415632057
H           1.18175996455628    2.40320122842841    1.19738772856750
H           0.44592642257019    2.90273115634433    2.47203445386415
O           1.03359196419619    2.47515160591087   -0.45102220345648
H           0.10968143493821    2.19419452644927   -0.61525842571094
H           1.55041077273393    1.79506241595425   -0.89871578719616
O          -0.18706505764538   -3.23044129174947   -0.51351863140235
H          -0.08316628895030   -3.87539599524267   -1.21456541533671
H          -0.68433931160481   -2.48157134416933   -0.90844179268739
O          -2.04354942998816   -0.21007795334621    1.00259814264264
H          -2.20459102435165   -0.99293936596455    0.46352336224363
H          -1.87604009393516    0.48708152334240    0.33208183650056
N           0.37472921862305   -0.31716821508057    2.10429258167183
H           0.45417671835415   -0.82707849621867    2.97703379764723
H           0.98248640928538   -0.77703198573674    1.34289573428016
H          -0.62456403608587   -0.31721877478399    1.75576088060170
H           0.68506915075974    0.68147018539207    2.22580130068625
