    26
        -50.47126090  Gyration_radius:  2.42926905021 Dipole_moment: 4.304
 S          -0.84685159688028    0.36645446124794   -1.67480553595483
O          -0.67327941127237    1.79199140237081   -1.91224749379577
O           0.43554506445688   -0.32968419888053   -1.68532500056959
O          -1.61821872780931    0.07627706170611   -0.48732541450135
O          -1.67233573113407   -0.18807638212762   -2.90132684533255
H          -1.23728113638331    0.22796621058445   -3.63793584420048
O           0.57761884845196   -0.73890959254311    2.31469651203437
H          -0.00202339114948   -1.35476452622568    1.77072473630478
H           0.80126092906905   -1.21824963146031    3.11287505438625
O          -0.95236756521780   -2.18924170943676    0.81255957265901
H          -1.36393720294915   -1.45560019684206    0.31906896797314
H          -0.42791584189373   -2.67393833758662    0.14776988014609
O           2.03424155398264    0.43386464311656    0.31398699811117
H           1.65907300254895   -0.04651307794540    1.07614148328543
H           1.57449367143136    0.07653128033346   -0.47351980546754
O          -1.20770805940484    1.30487083068933    1.89241029723226
H          -0.61824207393334    0.61847275835042    2.25786922189180
H          -1.63177175397037    0.87511018793829    1.12733927647982
O           0.66580239088965   -2.94151860221899   -1.24030061962268
H           0.57212846392664   -2.00750466592546   -1.51860371934126
H           1.60719833443228   -3.10056144539551   -1.15330060502701
N           0.47697216231595    2.53516127694969    0.31376055184146
H           0.01066530155875    2.39322275174337   -0.62464636926981
H           0.78785932323449    3.49123767765230    0.44285741781359
H          -0.22706567350666    2.22413243743534    1.05401111187656
H           1.27613911921610    1.82926937646654    0.35326620104810
