    26
        -50.47445570  Gyration_radius:  2.41269882216 Dipole_moment: 4.666
 S           0.27977706305550    0.31886785258183   -1.42076723691650
O          -1.08608212324830   -0.20060656742126   -1.53521519401155
O           0.28072548036307    1.47768948023546   -0.51922844332177
O           1.21530276166220   -0.69915102643198   -1.01254845481661
O           0.72461912895267    0.82422080733557   -2.82753617981700
H           0.03509878918567    1.47488451653595   -3.06063737363073
O           2.12727450247684   -0.95504789869856    1.48503759761978
H           2.21439313384439   -0.01088298886124    1.72324931547901
H           2.02260240248628   -0.93940983669728    0.51246779233873
O           1.83793930718013    1.71331147828490    1.64671243115406
H           1.36781117287725    1.69913708748004    0.78934974266384
H           1.31776521060716    2.27178169469761    2.22655133155003
O          -1.49211487441054    2.24448226698876   -2.54317406738349
H          -1.73097820525673    1.34846353693528   -2.25290805099021
H          -1.13746683536559    2.68096349275360   -1.76143856514252
O          -0.71201269862770   -2.64286937714829   -0.60368039877901
H          -0.99067539937215   -1.79901865051661   -1.02449870389276
H           0.19091667296847   -2.75932347662486   -0.91702275319268
O          -1.60204556008680    0.63511063183168    1.11466851950885
H          -0.88782491359242    1.04866631847783    0.57833486985274
H          -2.23627047968182    0.32912758985707    0.45907062545035
N          -0.36025915203793   -1.62694460219108    1.82115886791075
H          -0.89139440791361   -0.72468137319159    1.72531322042010
H          -0.54809637704733   -2.17457252506047    0.93215018820225
H           0.69498405223997   -1.39161149328265    1.81484440829191
H          -0.63398864130821   -2.14258693784279    2.64974651147573
