    26
        -50.47231573  Gyration_radius:  2.41634930463 Dipole_moment: 3.650
 S          -1.40249146884122   -0.17178968174936   -0.37423722221620
O          -0.63918516737855    0.65632083379252    0.57084835564576
O          -0.53824329579066   -0.49390606875196   -1.52770950187322
O          -1.91901482579033   -1.36034216861384    0.25192640142426
O          -2.58286751839270    0.67313317452457   -0.88992479905134
H          -2.18822675788538    1.55734357736453   -1.13188166900695
O           1.95832107549903    0.76863441488031    0.58346332853827
H           2.21010795307131    0.91252661582536    1.49797548120742
H           0.96863185830435    0.83365055995232    0.57573116352184
O          -0.06121348684544   -0.39887395777950    2.92928460172870
H          -0.34240411563725    0.04156917520384    2.09625966392360
H          -0.80952114089694   -0.33142904600736    3.52406112377629
O          -1.44557954865558    2.87741362559159   -1.64314321259655
H          -0.51067901426590    2.57815639859420   -1.76881802543232
H          -1.77006095299133    3.11567151132159   -2.51432883507647
O          -0.01805922192671   -2.68706109812075    1.51799832101855
H          -0.84989442682656   -2.41263432085370    1.07184343336399
H           0.08252438353443   -2.02261978192173    2.23135378286393
O           0.88638198703797    1.68575994636983   -2.01140735822085
H           1.49076190585757    1.69419494572578   -1.26188280101143
H           0.39565724406848    0.83831895252996   -1.94947545482914
N           1.45197009497503   -1.69104248198194   -0.36709424811706
H           0.95732410710013   -2.22341366873014    0.43668127835307
H           1.92144674365187   -0.84248583352863    0.02107505683722
H           2.09039454082118   -2.27901178547831   -0.89122815344635
H           0.66391904835724   -1.31808385839313   -0.97737073154589
