    26
        -50.46617413  Gyration_radius:  2.55739522609 Dipole_moment: 2.934
 S          -0.81069449570651    0.43035111564144   -0.54444322350501
O          -0.38763839182594    1.56717045544165    0.27070133173842
O           0.35062795560609   -0.25474458908892   -1.11150004859059
O          -1.63683383691906   -0.49224806112574    0.22583063396886
O          -1.68010754833621    0.96068255357972   -1.70945532483171
H          -1.01164185573031    1.26882151164635   -2.39025103880190
O           1.25157590258020   -2.72564093568877   -0.69994369244652
H           0.90366672697057   -3.28988613357851   -1.39171747395897
H           0.99463590239895   -1.80887577074528   -0.94309179881238
O          -2.27404967720696   -1.43241902542854    2.79656403976001
H          -2.31288935318104   -1.03094946402647    1.91579160695777
H          -2.96530111457477   -1.01437746254263    3.31133511608604
O           0.39009722335941    1.56215322885440   -3.10054342186688
H           0.75520939909870    0.78713129797511   -2.64700204082988
H           0.72464598691760    2.33170139742134   -2.59424270407832
O           1.59416603539871    0.44036402602542    1.58907788210488
H           2.26986662972239    0.41409708074131    0.90727920060322
H           0.85796167666052    0.96664758396689    1.20154077881211
O           0.98082578114463    3.31890603021071   -1.15817307161394
H           0.49763425599079    2.71652303380272   -0.55040996540604
H           0.56917411051621    4.17913143964936   -1.06200782591007
N           0.20063337821576   -1.81216316657879    1.56467509978029
H          -0.58823002533226   -1.36875891289951    1.01417079577418
H           0.85531524237969   -1.00998831207764    1.76892305615503
H          -0.19800364789672   -2.21899988808722    2.40864156105768
H           0.66935371973376   -2.48462901308158    0.92825051787031
