    26
        -50.47900072  Gyration_radius:  2.40300272011 Dipole_moment: 4.344
 S           0.19384221061028   -0.84219643680461   -1.31010520258254
O          -1.03971157561324   -0.07271376825661   -1.09980526577681
O           1.29464344054727    0.05785030953226   -1.64004241342898
O           0.48465272243000   -1.69956133155975   -0.18271938741867
O          -0.05537660283400   -1.77400771393899   -2.53653513518763
H          -0.22113767899902   -1.13597063470704   -3.25786565952748
O           2.04529454277560    1.47012969768611    0.40526023650802
H           1.81981319090256    0.92315398210148   -0.39054423106254
H           2.83812674684877    1.95746381839195    0.17529144018669
O           1.52595474479447   -0.67381909625840    2.04769534056114
H           1.91473431892172    0.12631838952419    1.65483807054467
H           1.27718206031890   -1.22025794548932    1.27378937871067
O          -0.33454699469645    0.57650112404708   -3.70716738433318
H           0.46561304471686    0.69788437585482   -3.17144983678433
H          -1.06529629343555    0.79802059507667   -3.11947750012709
O          -2.03107288331420   -1.63395013538389    0.79606720802565
H          -1.94054063334172   -1.02556698675769    0.03451465903075
H          -1.27814448610661   -2.22811925634656    0.67277502598946
O          -0.66718712320523    1.93091035326503    0.62621404255547
H           0.29922024306013    2.02617683554118    0.59145373299304
H          -0.88596988739702    1.30141771970680   -0.09301055985180
N          -0.94501694510848    0.09321077738413    2.48593171497366
H          -1.31653636511208    0.26873369273743    3.41194509115857
H          -1.50395392891907   -0.63727465397145    1.95797484709264
H          -0.94126371161078    0.96199348926853    1.87253221135728
H           0.06667783375122   -0.24632721064375    2.50243954639532
