    26
        -50.46986133  Gyration_radius:  2.43342937187 Dipole_moment: 4.282
 S          -1.22681720707450   -1.23626535143837   -0.12295291967473
O          -2.13441284552451   -1.31942380874873    1.00044309909984
O          -1.07458852401105    0.12796426590939   -0.61001769127657
O           0.05620363515738   -1.87043545369758    0.09633573591146
O          -1.95348963393391   -2.05469847546927   -1.28600438612956
H          -2.79726283355576   -2.20497537486685   -0.87496623704941
O           1.20447104569194    0.56547156316554   -1.94644363086696
H           1.31485457525363   -0.22244464039637   -2.49995124574560
H           0.33134857171604    0.41668962963043   -1.52855373401413
O          -0.21767511317373    2.66789268505330   -0.37902751020256
H          -0.77799854615505    1.87497644170147   -0.46812827019603
H           0.38914964082746    2.61626169825365   -1.12564985233152
O           2.20436822844175   -0.29546866510094    0.37305371173786
H           2.09211359574639    0.06860067426930   -0.53617779683503
H           1.55805151601867   -1.02784525857205    0.40197311705655
O           0.59800650643987   -2.03590525197575   -2.53888455435306
H           0.49810043038853   -2.11757312804386   -1.57451224790151
H          -0.25967499480963   -2.26657507256748   -2.90006895616225
O          -1.15679253746894    0.29564529792631    2.79709091088320
H          -1.48929640558575   -0.38235783338428    2.16013008973423
H          -1.92783388582157    0.81015137159050    3.04443526934700
N           0.96504562573670    1.53819837132297    1.72574507976245
H           0.55442809196135    2.13782075518703    0.96184543038608
H           1.55922650089687    0.77297691547872    1.23759711271833
H           1.52117508310060    2.08053216037491    2.37697911042481
H           0.16929948973790    1.06078648440038    2.21571039567712
