    26
        -50.47771712  Gyration_radius:  2.36996853975 Dipole_moment: 4.701
 S           1.14039477718490   -0.81955124952645   -0.43965040713436
O          -0.17059486834229   -1.05081595246054   -1.05067610546908
O           1.28512796879118    0.59518143236508   -0.07103054629221
O           1.36609927736803   -1.67601234483368    0.70283534947044
O           2.22457253358782   -1.12725721317407   -1.50713328030203
H           1.90669233363105   -0.62591685798581   -2.29352618917122
O           0.22632783731054    2.42484051655467   -1.57650393334696
H           0.67981649254233    1.78187935962188   -0.97688336587959
H           0.71040787914320    3.24837998283384   -1.50359022646343
O           1.05532514021393    0.42785730156019    2.52788510917694
H           1.24737811470415    0.64883729555005    1.58823363996063
H           1.43290271764382   -0.45318457682431    2.62474646874246
O           0.76689320179169    0.23138966568083   -3.21547657078867
H           0.10174073013718   -0.30802794566263   -2.76177862914918
H           0.60111726662982    1.13990528979868   -2.91302145323305
O          -1.09894530258272   -2.43665700779340    1.18205952615891
H          -0.12435704327409   -2.32030869894398    1.09963149061710
H          -1.39927938903401   -2.42609648737098    0.26698269408701
O          -1.82321054738204    0.90384924358291   -0.39721893924257
H          -1.37149803408964    1.67701037348465   -0.76450717147848
H          -1.29665013553551    0.14026351164667   -0.72338894032989
N          -1.51501109243397    0.01887842333508    2.06633313053502
H          -2.21102005992974    0.22067747849593    2.77526634885078
H          -1.48397896791713   -1.01532107732779    1.81965257140477
H          -1.71672819895475    0.52740335148778    1.15685739395567
H          -0.53352264116801    0.27279618598751    2.38390202531172
