    26
        -50.46662419  Gyration_radius:  2.47238007181 Dipole_moment: 5.592
 S          -0.94505138468573   -0.94985690077656   -1.73313775519624
O          -2.25957131561149   -0.38768662488526   -1.88939130535449
O           0.15356080790220   -0.09709206794824   -2.12696509338049
O          -0.70861509596749   -1.51853830882388   -0.39728489416221
O          -0.91142438538446   -2.21304733070747   -2.70846638926489
H          -1.72078578500105   -2.09144637055491   -3.19337690614645
O           0.84183999505237    2.33483451889583    0.77549174837776
H          -0.03526673632826    2.23811510093228    0.35558239613355
H           1.47165651472108    1.98510570094608    0.13020670137575
O           0.58684575401483    0.46502825733160    2.60332363073756
H           0.69168438234980    1.29903242798635    2.07088954260754
H          -0.35261710696096    0.23182210080042    2.53163001437020
O           2.33590096172127    0.79472217384701   -1.06763392643748
H           2.93042161859603    1.06407451358455   -1.76870252603787
H           1.49336261594895    0.51992728607514   -1.51327095179545
O          -1.88559914284489   -0.45151424623532    1.72155797099850
H          -2.69837104898502   -0.91077205843501    1.93542242895633
H          -1.50843512983946   -0.90174923108530    0.93287544838327
O          -1.57224503602903    1.58076070989628   -0.18742649154960
H          -1.88749213186876    1.12248248831778    0.60398636588184
H          -1.83581433047030    1.01980078326513   -0.93289456945072
N           1.59188434673766   -1.05024521793294    0.77347508026161
H           2.13006770920024   -0.42296993618139    0.15093507765982
H           1.24722474748653   -0.46801575015620    1.63331950488843
H           0.71436298099681   -1.33070651519578    0.25188118510321
H           2.13247622524934   -1.86206546296021    1.04797372304054
