    26
        -50.46859704  Gyration_radius:  2.45815201258 Dipole_moment: 2.520
 S           0.51258063465648   -0.95642851399834   -1.77353418910971
O          -0.92293557453133   -1.02321807403559   -1.56467246449247
O           0.90916068021188    0.20248478725601   -2.54904844357598
O           1.24492873424533   -1.09154566439354   -0.52278703076434
O           0.91245083841952   -2.22099203933206   -2.63845716175285
H           0.67109264660687   -1.94084211443521   -3.51451570977757
O           1.37950106173470    1.12179663063886    0.94225146286721
H           1.50365399953412    0.30257668979645    0.41920108756802
H           1.19285319499131    1.80519460861731    0.27805092352182
O           0.85744329677323   -0.82835493839518    3.21570493960193
H           0.68329408706374   -1.64262113679766    2.73567723506081
H           1.54972772724185   -0.36826202432183    2.73338331822974
O           0.41797827519866    2.41227755503660   -1.28973694037820
H           0.68536787283088    3.15191210963816   -1.83751065758494
H           0.63257499520603    1.59458973218507   -1.81008663866128
O          -0.66866168245893   -2.10369304914183    0.94608101096941
H          -1.32399047905067   -2.25336709234652    0.25711024699736
H           0.13321417977064   -1.84237658616877    0.43906485884749
O          -1.99588610904532    1.23486631325099   -0.66437233800297
H          -1.30169011141064    1.86278521946152   -0.92622299646526
H          -1.74493762349167    0.39308133859575   -1.10245015742357
N          -1.09078945630262    0.45064322090997    1.67044595812758
H          -1.62622036555268    0.84015878818870    0.83827457701611
H          -1.48434513738119    0.69612413314565    2.57183731506314
H          -1.03180266403494   -0.59468139780188    1.56060582352673
H          -0.09456302122506    0.79789150444394    1.58570595059273
