    26
        -50.47132488  Gyration_radius:  2.42047290777 Dipole_moment: 3.200
 S           0.98682555284770    0.52172967289760   -1.60299057948244
O          -0.35528452947474    0.84480034306363   -1.15741226417633
O           1.96749005368298    1.54408088429341   -1.32943376657909
O           1.40308759552022   -0.80412080850138   -1.15620296201287
O           0.87811636205936    0.42622665815211   -3.19203728034542
H           1.77484590722611    0.57284794581023   -3.47496291381075
O           0.74160851129786    2.84294237538294    0.58229983637725
H           1.32328102693380    2.44246594885603   -0.10171551778427
H          -0.11044051016336    2.93422102273182    0.14735312215639
O           0.40091627198287    0.99903657892517    2.41278689039707
H           0.60051122741169    1.70968226479643    1.74422613110662
H           0.74103551699775    1.31868903754450    3.24952369574488
O           1.04453092980918   -1.47805278530349    1.39390248482909
H           0.92697231925077   -0.61491698360480    1.83170752483866
H           1.35301135837811   -1.27170947125239    0.48691766258203
O          -1.92740396905630    0.55028316453535    0.99854561150793
H          -1.27861035856185    0.76938085684922    1.68785577443667
H          -1.46972646757920    0.76169154086558    0.16043953947417
O          -0.89337367727958   -1.76770495278393   -1.94248329188641
H          -1.24700439611781   -0.90776347587882   -2.19293374031757
H           0.05073414934491   -1.57302688362433   -1.75388603815773
N          -1.40905156832956   -1.99811957299129    0.65436259534083
H          -1.94894706511307   -2.76236951008354    1.04186625128970
H          -1.32035721320970   -2.06089652946031   -0.39685500137108
H          -1.82236978925242   -1.04256550945686    0.86841410919236
H          -0.41039723864928   -1.95683180178912    1.04071211663765
