    26
        -50.47163762  Gyration_radius:  2.37114187818 Dipole_moment: 7.007
 S          -1.44154243058736   -0.49883224510119    0.19549864719588
O          -0.36910691561283   -1.03299780485487   -0.65034027674947
O          -0.86041353654818    0.14942013548362    1.37588948450178
O          -2.26931570447773    0.43741880203312   -0.55111351376102
O          -2.32369510216400   -1.66679017837932    0.65686121360142
H          -1.66434401311576   -2.40382924401125    0.84605266673083
O          -0.36227526047023   -3.28729990861072    0.93402062171246
H          -0.02437298965929   -3.03908823171344    0.06595266528335
H           0.20915447511601   -2.80639529644894    1.58039570761868
O           1.05382673054091   -1.48941484366755    2.28826978371113
H           1.77633235645686   -1.18022356874153    1.72549521922193
H           0.32946553875402   -0.84950718045895    2.14947538045378
O           0.99381189421469    0.24975266302350   -2.58851360381303
H           0.43000078492615   -0.42773700703806   -2.16962219916760
H           1.79402306626131    0.24910070527537   -2.04137511685318
O           0.44868548278087    2.31750582170663    0.89357457306733
H          -0.08075977959592    1.51038120534104    1.14415550729239
H           0.36849281606517    2.92363714602770    1.63151007534858
O           2.00812946433416    0.03617705245963    0.02757034873295
H           1.15215118597472   -0.40605541394106   -0.13680505157845
H           1.79054478120610    0.89054412044069    0.41758593250576
N          -0.59061748402801    2.09792442445443   -1.57891289245598
H           0.08682726881315    1.47296466651413   -2.11432347047419
H          -1.38258331156729    1.45351973118401   -1.23296253439826
H          -0.12391629202285    2.44560322836788   -0.71622349296453
H          -0.94850304558257    2.85422120036364   -2.15211568453747
