    26
        -50.47291175  Gyration_radius:  2.42993507804 Dipole_moment: 3.069
 S           0.15939608499581   -0.23498902842637   -1.08736749338111
O          -0.62187812327936    0.15872318776479    0.09026677792183
O           1.04444315940649    0.83511613341952   -1.50717067925802
O           0.87286754753680   -1.47923953005769   -0.81354185445085
O          -0.84819120171680   -0.53528191929544   -2.22798891028624
H          -1.07478729458467    0.37204890576511   -2.58300825359190
O          -1.60785138211667    2.56773731588923   -0.21095546149090
H          -1.23833159325629    1.67301691910214   -0.03293464251147
H          -2.51299981082969    2.55181775429711    0.10454918118252
O           1.77531658498217    1.69248116042561    0.86460821988680
H           1.61513962420101    1.47414317606132   -0.08238584840136
H           1.00367871910611    2.19610734743187    1.13677129659063
O          -1.03908402895727    1.97225032645514   -2.79392021529301
H          -1.37392357617232    2.37538645513884   -1.96654950030604
H          -0.07731754334312    1.97414970864561   -2.68868844282808
O          -0.78367010578266   -3.19016516695448    0.41066307151201
H          -1.53079508838012   -3.36757349452063   -0.16244162288513
H          -0.16099427199210   -2.65257709441247   -0.11891754181580
O          -0.66646939372014   -1.29551975571918    2.33862585123329
H          -0.82716493664202   -2.15657740781807    1.90651329148960
H          -0.88622716517367   -0.65176486008308    1.63781987463723
N           1.79035502231126   -0.86592369242774    1.58264410614769
H           1.62368030020346   -1.23850547006547    0.61325781736426
H           2.60850284095196   -1.27784338583492    2.01811114589790
H           1.87953588502635    0.18099985666049    1.46520612180358
H           0.87676973722456   -1.07801744145368    2.10683371083490
