    26
        -50.46891255  Gyration_radius:  2.44429582072 Dipole_moment: 3.280
 S           1.00552762952932    0.88081332793467   -1.33474403998501
O           1.78681018485971    1.17416029174144   -0.15452878666990
O           0.78688899640218   -0.54531442885931   -1.53364939213476
O          -0.24728242983887    1.61982438989217   -1.38308475085846
O           1.88550699113477    1.37226608653346   -2.55476002729018
H           2.44398360235645    1.98141141766219   -2.08610471475963
O           2.15207518141413   -2.15104664002574    0.04126668125534
H           1.76983506916582   -1.47433465708293   -0.56404498750801
H           2.22271778755571   -2.95374863976352   -0.47858374426183
O           0.61973881552053    0.87481171284110    2.20978937989618
H           1.21486966500586    1.03042419608161    1.44576361450581
H          -0.16251041420283    1.42906260597080    2.00410401716225
O          -2.70219534419081    0.65298071694927   -1.08038692390461
H          -1.81613879969847    1.02942045510641   -1.28089589220660
H          -3.20269002024474    0.70081538331580   -1.89585953151666
O          -1.39226783838001   -1.61506155698034   -0.40729356391623
H          -0.63181395117877   -1.33036024735424   -0.95413923223645
H          -2.05257992393548   -0.90795522188376   -0.53444730556693
O          -1.35248243579803    2.23019121065481    1.01508971524844
H          -2.20354115040121    1.83261256148026    0.80777520790155
H          -0.85724499048440    2.20732022860999    0.17567853761423
N           0.13533425762085   -1.62766271854071    1.73606796619359
H           1.00792731000041   -1.94787409347912    1.25611756222363
H          -0.62166794975096   -1.65539950841758    0.99228336767158
H          -0.08966204244176   -2.21057813432451    2.53363798397561
H           0.30086180989958   -0.59677874828776    2.02494887917857
