    26
        -50.47192566  Gyration_radius:  2.4360382258 Dipole_moment: 1.697
 S          -1.57676338412660    1.17752924432971    0.54823958384464
O          -2.21642867169087    0.54644288099031   -0.59147172015998
O          -1.18464674482287    0.25861108371163    1.58890665310930
O          -0.46827525055262    2.04248353861428    0.13125083109019
O          -2.66337773690592    2.13891393274208    1.18248864219634
H          -3.04431420548418    2.55035460950592    0.41366467302385
O           1.97719826183740   -0.34190802973566   -1.66763682335522
H           1.58310462984462   -1.15024329363082   -1.29370606416612
H           1.24151858673571    0.13082212190615   -2.11757500127967
O           1.17255434926722   -0.92509793325800    2.05721756633545
H           0.27350613622834   -0.54436944363406    2.09829942524809
H           1.12831088267745   -1.59346849409494    1.35027377224993
O          -0.18940374754441    1.06820974501161   -2.35833134755797
H          -1.02013394924835    0.58116933521313   -2.36089602580487
H          -0.24385462953904    1.60040494631641   -1.54421482972786
O           0.73233775652746   -2.36502141043075   -0.26411133293322
H           0.85839598324058   -3.29477442285907   -0.45816705752133
H          -0.25189094803000   -2.22702915920527   -0.19866161478941
O          -1.83335657223524   -1.95861751334120    0.10618612177581
H          -2.06257527622615   -1.09446694675162   -0.29603201186324
H          -1.86238196629316   -1.77517547483949    1.05106241373763
N           1.95873877284521    1.05904676586400    0.53542651886471
H           2.12524042125261    0.54923090576702   -0.39569829840392
H           1.81254957726454    0.30597707137527    1.27362761421867
H           2.71152937600760    1.69570540886603    0.76842875215622
H           1.04241832773135    1.56527052354519    0.44142958016389
