    26
        -50.46941006  Gyration_radius:  2.46082445226 Dipole_moment: 1.966
 S           0.08748582019147    1.28352571936478   -1.34789630473594
O          -1.11624770302406    0.49612330953349   -1.59234743678693
O          -0.12601339445167    2.31462685057685   -0.36062700816059
O           1.22948137328166    0.42764162438922   -1.05947964140259
O           0.43693942137742    2.02451129594533   -2.70103807420464
H          -0.10348891589403    2.80437995022076   -2.63523199963233
O          -0.94043566842964   -2.45215953256165    0.81589324229595
H          -1.70431170915181   -1.85163273762922    0.81656502172508
H          -0.68087439626051   -2.52406333971816   -0.12780129942873
O          -2.57911935595910   -0.22770784936102    0.47024766758064
H          -2.06423635927105    0.06350188777595   -0.31888218415658
H          -3.49930548071417   -0.22256372090063    0.20288315313841
O          -0.91171095199805    1.37030404450197    2.01202228354870
H          -1.71015228462285    0.90361185540437    1.71915041323469
H          -0.63689243337722    1.90642719932549    1.24045186508989
O           3.39522555776187    0.21064545313543    0.70324930252379
H           4.18731521363416    0.72859565312359    0.55698622292373
H           2.81680625522412    0.37388613014034   -0.05640640076867
O          -0.12285054351229   -1.98843008535984   -1.70940065856794
H          -0.56681487331726   -1.12383966585451   -1.79746563471096
H           0.81425881983296   -1.78655480025191   -1.76834817675539
N           0.77440381949322   -0.56082567320286    1.41250474446486
H           0.18610446255094   -1.44443688534202    1.32986600218940
H           0.19119117686418    0.19918313113056    1.86762739004190
H           1.66676178896102   -0.69773289605342    1.88188956439641
H           0.97648039081405   -0.22701690834658    0.44558792617112
