    26
        -50.46923997  Gyration_radius:  2.49441892717 Dipole_moment: 1.627
 S          -0.38579323844302   -0.63591350419346   -1.07125624507393
O          -1.16101763917375   -0.36364323486881    0.14901495869089
O           0.78650550295112    0.24558404585134   -1.12440628593710
O          -0.01690689539978   -2.02488874309166   -1.17785960462696
O          -1.29220117437931   -0.28887782285518   -2.28111316882365
H          -1.68687641476672    0.59098508656748   -2.06807091652465
O           1.90655943132151    0.22353800635786    1.31052460417238
H           1.73062263830837    0.16670737671925    0.34954594387836
H           1.30680468869960    0.94816715232927    1.59979919855313
O          -0.25279571085287    1.77765307928081    1.55754652736196
H          -0.12328591353770    2.46581474919597    0.89361668292554
H          -0.75304244914966    1.07836233086131    1.09591449168786
O           0.35285678254687    2.78935107680043   -1.01648600919356
H           0.56703769042914    1.81757003830404   -1.06729646835772
H           1.06635553146589    3.24184307032023   -1.46846521294831
O           0.70608615223780   -3.84387980682665    0.55859968597941
H           1.58928284623342   -4.11005006027972    0.29667787987512
H           0.36243591346109   -3.29928670842023   -0.18797577187346
O          -2.12470533738628    2.15828601354674   -1.83029152524517
H          -1.29224652651935    2.54985340414035   -1.49302566814353
H          -2.32551189854268    2.59556295587773   -2.66021988308904
N           0.20546157461254   -1.63722999720611    1.96311701871003
H          -0.13755968650939   -1.66576607136954    2.91709850302862
H          -0.51331442363081   -1.21700195045758    1.30516933402420
H           1.03964917201532   -0.97176861745863    1.85268458131554
H           0.44559940401347   -2.59097188912134    1.59715734963192
