    26
        -50.47008304  Gyration_radius:  2.50951320094 Dipole_moment: 5.854
 S           0.63765620246986   -0.75520236208064   -0.70785510869021
O          -0.46632186001482   -1.36645252798355    0.06492474460039
O           0.14880263541249    0.44611908740996   -1.38610333414292
O           1.75616364515316   -0.48077574841100    0.16103653092030
O           1.07109009292164   -1.77681053362041   -1.77914417702892
H           0.40934580882139   -1.64519561767425   -2.52054128460960
O           2.13116323080554    2.12666913377092    0.90245956176631
H           1.28480768545890    2.52980574190239    0.67813436220158
H           2.15669778459537    1.28786056700214    0.40977811463282
O           1.87973303241292    0.27661211567272    2.80879100800280
H           2.13674174465743    1.13001611579219    2.39527625119746
H           2.14630246183808   -0.37012348047977    2.13832705132431
O          -0.80818701114661   -1.07487982618363   -3.37841944400510
H          -1.58848090910157   -1.42621931776986   -2.90052563530660
H          -0.63958394513780   -0.20572093316777   -2.98368251803790
O          -2.50087475266852   -1.99727877726683   -1.49952353787560
H          -2.61116413211125   -2.94797752488117   -1.44220043698576
H          -1.79434121990837   -1.76573972127629   -0.85697257470301
O          -0.66280272610605    2.26646554999921    0.25529920458494
H          -0.34572149273863    1.60916776943000   -0.42294739761745
H          -1.33059557264813    2.79695825542251   -0.18196666369564
N          -0.62705675065643    0.27257792613450    2.07525015656274
H          -0.77468988303930    1.16731092419782    1.56513205575074
H          -0.62452738264497   -0.48746336331130    1.32770011405401
H           0.36252333848791    0.27923039503189    2.50615361922380
H          -1.34668002510803    0.11104614236418    2.77161934787738
