    26
        -50.46675458  Gyration_radius:  2.45489083185 Dipole_moment: 4.281
 S          -0.37880062513537   -1.06242936826894   -1.42399092352221
O          -0.14132281363562    0.22718468548732   -2.07229955052138
O           0.85544881505269   -1.69191834852170   -0.99478779937233
O          -1.37256503522004   -0.96287006794228   -0.38409189757767
O          -0.98980530867310   -2.00944038711288   -2.53945324015883
H          -0.23749573246222   -2.16351327486298   -3.10089595493641
O           1.33791304170488   -0.68177495132657    1.42098814571009
H           1.16192714046879   -1.17962417722324    0.59513284931081
H           1.82319523469072    0.12852114353129    1.12985531943822
O           2.13068976883636    1.62375789852876    0.36107231111736
H           2.46590006210075    1.27281746626764   -0.49201698338370
H           1.29057885280541    2.04641620226880    0.14929167628980
O           2.52379840744826    0.29291288973376   -1.94897709888291
H           1.58121248099160    0.40208455973876   -2.17373594060189
H           2.57129106878323   -0.60694598363843   -1.60670532987617
O          -2.82410809976019   -1.17411740612790    1.79807957300726
H          -2.69269590831369   -2.06673878297128    2.12347748599586
H          -2.48612550526774   -1.17537538690491    0.87941930679007
O          -0.69746035072579    2.00642903606125   -0.26888836982739
H          -0.50692348659534    1.31852001153802   -0.95863510951082
H          -1.42216697907601    2.52559564748811   -0.62143411317868
N          -0.81354760921958    0.60206769652037    2.05541111968626
H          -1.64687637068366   -0.02679014032258    2.11147013385923
H          -0.89708280554370    1.19330557021101    1.19885031996582
H          -0.70440839769329    1.17296483570404    2.88626359046647
H           0.06943014026172   -0.01103936868988    1.87660045902927
