    26
        -50.47398693  Gyration_radius:  2.4380532553 Dipole_moment: 2.223
 S          -0.76321917805845   -0.21007333125513   -1.75173808125473
O          -1.55244862246962   -0.64787861880022   -0.60148586770830
O          -1.05110592058122    1.15260456586883   -2.13392615860775
O           0.64432492983237   -0.49362279049529   -1.55096702416581
O          -1.22303963077220   -1.10871892118935   -2.97024058024300
H          -1.94677276541064   -0.58857111623565   -3.30012422208942
O           1.76256203585572    1.03610788574796    0.38125393444416
H           1.45263460329207    0.47802097277400   -0.35437988555040
H           1.32519382729276    1.88717152969091    0.23409322737122
O           0.44107357111427    0.15735454603856    2.53230741363443
H          -0.38352058351285    0.65639990649479    2.32395570442806
H           1.09786209385132    0.51653048794666    1.89266881694600
O          -0.14739341443707    2.90255635351026   -0.40471945761040
H          -0.47035526640472    2.28943445891209   -1.10630092342030
H          -0.26399612571671    3.78982451257893   -0.74751125816854
O           2.02268633306384   -2.38690507585805   -0.30650993139548
H           2.79386147818521   -1.90550135456319    0.00326709607936
H           1.58940925413712   -1.79348720629429   -0.95410830844164
O          -1.63156396841159    1.30725182532208    1.32363948448743
H          -1.78082377890223    0.63670842712934    0.63633887740893
H          -1.19917081938932    2.04651313223157    0.86823739621171
N          -0.15064794497486   -1.97669977987233    1.20855536420701
H          -0.62298348499758   -2.73129453695443    1.69281949173940
H          -0.77369015736042   -1.55051354060735    0.47583140027524
H           0.11081118240899   -1.15752769385902    1.88178051286800
H           0.72031233236650   -2.30568459826077    0.72726297855907
