    26
        -50.46856854  Gyration_radius:  2.4499015301 Dipole_moment: 2.796
 S           0.75104777102233   -0.21141469187565   -1.70317572064731
O           0.38185066893744   -1.41229885358380   -0.96088183785543
O          -0.33569063074319    0.27915976970003   -2.51911953627874
O           1.33632371879440    0.79136761256645   -0.83168588861974
O           1.89109282665458   -0.63661809763582   -2.71481955003078
H           1.35119061701275   -0.87893835881285   -3.45771905867918
O           1.14839482102702   -1.61587876108296    1.60106101373247
H           0.95976221965732   -1.70914689138301    0.64495079231349
H           1.92619928308543   -1.02329198434284    1.63409236866770
O           2.97489322785276    0.32137253973110    1.20779622750132
H           2.49646364058440    0.49418342339402    0.37087643314788
H           3.01753612357732    1.16355276836595    1.66390183480291
O          -2.08861467137101    1.84706542804719   -1.28580828016314
H          -2.26754088650248    2.55173771844458   -1.91027886098758
H          -1.51182438812987    1.20979278833767   -1.76126265115961
O          -2.09974724118989   -1.59315292679351   -0.10586501815636
H          -2.31165413879506   -2.52753069289749   -0.13231841803353
H          -1.22781034254315   -1.50123302549366   -0.55353945832256
O          -0.41429786004006    1.98511717217383    0.77943526136240
H          -1.14403662346418    2.09941098556471    0.13297673095991
H           0.32445178449597    1.65745103030935    0.22648657614049
N          -1.05025833287658   -0.25496303522108    1.96743863521185
H          -0.82712015935024    0.71848610140730    1.57262776860453
H          -1.66491069129860   -0.73867377801553    1.27462989190231
H          -0.13387865704786   -0.81376649170492    1.97782872935641
H          -1.48182204932720   -0.20178973919126    2.88237198521557
