    26
        -50.46847850  Gyration_radius:  2.49012397456 Dipole_moment: 4.424
 S          -0.79900349173852    0.08966832599933   -1.87821438802748
O           0.54939342771597    0.62950268772523   -1.99400863053167
O          -0.84592235068550   -0.90262981036608   -0.78902289921019
O          -1.83606807145041    1.06932817755240   -1.78090585792833
O          -1.05202641801516   -0.74908189802361   -3.19531471819784
H          -0.35190175907872   -1.39428864792682   -3.17097212377174
O           2.49382765420596   -1.13823426216898   -1.62862813875047
H           1.79871066213523   -0.47087138727097   -1.81780248429514
H           3.26261328033869   -0.86449058095236   -2.13062529855910
O          -0.00141554706089   -1.02853370477966    3.11070620843825
H           0.01254252869129   -0.32652730649532    3.76352587623876
H          -0.84299756324643   -0.93086917657498    2.62372297263280
O          -1.33736755782851    2.06001280515603    0.67123282168049
H          -1.70218256925125    1.32473447220619    1.18224879384486
H          -1.61104173846228    1.88886678958777   -0.24818861913495
O          -2.13152541569643   -0.52530804089193    1.47234582789220
H          -1.72495371389500   -0.70085401379475    0.59066769673895
H          -3.02173310067099   -0.87738687939777    1.43138685118662
O           1.28941574110657    1.94316790285356    0.25136042764889
H           0.38490220409812    2.19038004641531    0.54641768347077
H           1.17695976609549    1.74719728714574   -0.69513980203330
N           1.28229310451012   -0.62441126876783    0.76278785216682
H           1.05348312202018   -0.90836900659248    1.73402805836156
H           0.45377895108089   -0.83352401780514    0.15087403782190
H           1.41582577795727    0.43502198975917    0.69044561129749
H           2.08439304730303   -1.10250049294500    0.34707222103281
