    26
        -50.46811880  Gyration_radius:  2.51225395123 Dipole_moment: 3.983
 S           1.66783341122339    1.12271108610399   -0.09213809899123
O           1.23045532438454    0.76145231844335    1.24626163496045
O           2.61702206575407    0.16758339963194   -0.63079287939335
O           0.56178694445419    1.38394845521973   -0.99944040045478
O           2.42874388662292    2.50491423877361    0.04038225483026
H           3.16238277818465    2.30758730727195    0.61443091999624
O          -0.77793446957016    2.48246388542629    1.09257249143795
H          -0.57005441878474    2.56165233737835    0.15384989909714
H          -0.08042838186333    1.88697602418951    1.42116361499927
O           1.59690302539232   -2.14611050229039   -1.17966623752948
H           2.28314369211020   -2.72228212874721   -1.51959115121629
H           2.04080634902120   -1.28140313910053   -0.97388234845281
O          -2.14511545737717   -1.42935041184169    0.24139029294943
H          -1.37162421014401   -1.64951855004740    0.81219499094430
H          -2.52286826184784   -0.59638935848256    0.60791975196363
O          -2.93525361113773    0.91532286937395    1.22825197278268
H          -3.22053588795577    0.93505310226364    2.14260461531740
H          -2.17888521338377    1.54618495028855    1.16613584946432
O           0.26159392705666   -1.75269668055161    1.32056267887020
H           0.77428182132813   -2.14935174711159    0.60481597745115
H           0.62154928602500   -0.85310214209418    1.43243330744790
N          -0.69744864545996   -0.80057031356529   -1.77732438374289
H          -1.40678242505300   -1.06815093463435   -0.97161613686161
H           0.07256463856437   -1.49095668032348   -1.76244890540914
H          -1.14850564777990   -0.76343723947467   -2.68429853586887
H          -0.26363051974135    0.12746984389796   -1.53377117464915
