    26
        -50.47318405  Gyration_radius:  2.37948480531 Dipole_moment: 4.694
 S           0.21083760939900   -0.82860175436822   -1.53184846427924
O          -0.83854382959366    0.00731961234112   -0.94743291707457
O           1.17034958459938   -1.21064723932549   -0.46619758359054
O          -0.33194823225585   -1.98292228534308   -2.19477232837915
O           0.99152905837482    0.03386794806532   -2.55192793981743
H           1.24295261782258    0.88027569911588   -2.08012124023384
O           2.24016079013874    0.59911228846421    1.03951339240578
H           3.13348339905403    0.33444801349403    1.26241258475293
H           1.87656624944548   -0.11385498187660    0.44896775803230
O          -0.26008062080009    0.86286593573791    2.22916878904145
H          -0.63847296246769    1.50814361294513    1.60678480376322
H           0.69042263289706    0.86900983442192    2.02639021944858
O           1.54698980259184    2.13907060401084   -1.12294502584267
H           0.69479301496296    2.48013047395635   -0.80310041581816
H           1.96927868183376    1.75642021255127   -0.33387970438596
O          -2.38457401752043   -2.23797560995072   -0.54998394271974
H          -2.87160171977100   -1.44862179758825   -0.80044930405332
H          -1.67643323811737   -2.30727274426252   -1.23228310145013
O          -0.95480316920065    2.37476192158293    0.03170101381689
H          -1.75141709867255    2.80851209383081   -0.27566668572704
H          -0.95199500733264    1.46924520646303   -0.37905453321566
N          -0.63601929146754   -1.61469170044320    1.35696607472526
H          -0.66814427088588   -0.63534548680565    1.76803184666913
H          -0.52269878473620   -2.31901043998619    2.07855655650228
H          -1.46595588916069   -1.82801295043019    0.73645203642127
H           0.18532468085361   -1.59622649659318    0.68471812101697
