    26
        -50.46287337  Gyration_radius:  2.59868238504 Dipole_moment: 3.051
 S          -0.25854016932921   -0.87624494264920   -1.96076617535714
O          -0.82718580928723    0.46588060635739   -2.03710550950136
O           0.98340946844443   -0.99062827245892   -2.69352900395159
O          -0.17030319069576   -1.33621309096347   -0.58469611777510
O          -1.29038317119957   -1.84242870761291   -2.67561112265706
H          -1.12009469522113   -1.65128308912491   -3.59173573193722
O           2.75441291074602    0.61574102520619   -1.59937651909264
H           2.09891145276019    0.05477196248866   -2.07656389967205
H           3.61265125471983    0.35352154423052   -1.93659526614943
O           0.66622014561659   -1.04232988458401    3.09006275557224
H           1.05694481092712   -1.91717922292828    3.12209348724687
H           1.14590213524058   -0.55227473879349    2.40415174593945
O           1.59115136443605    0.09151965789600    0.73361375760965
H           2.23606992972124    0.32287805556589    0.03361218239653
H           1.00244756244963   -0.56763786096311    0.29826583948199
O          -1.69061841451348   -1.08706305813629    1.66752280016226
H          -0.96700716410172   -1.10676650720194    2.32212211328004
H          -1.26589656965645   -1.27760775816051    0.81250058895876
O          -2.47194598418995    1.39103279891117    1.52921993217888
H          -2.23955732326442    0.42961608754043    1.68406755857233
H          -3.28927007355689    1.38100748451693    1.02882473546374
N          -0.30557745703218    1.85796549957027    0.09410984290536
H          -0.03369663150818    2.82029217955218   -0.07270986178564
H           0.48516004098817    1.30730609482460    0.51823734910588
H          -1.16554277597826    1.79134510285735    0.71300537141367
H          -0.53766165651001    1.36477903406866   -0.82272084239017
