    26
        -50.47172736  Gyration_radius:  2.52465445423 Dipole_moment: 1.012
 S          -0.49076637437488   -1.22662970096745   -1.50137874901305
O          -1.76254329558290   -0.87571517678785   -0.88631846821446
O          -0.18001647846107   -0.40166616571076   -2.65047240843458
O           0.57822424572754   -1.27214416818368   -0.51631810588330
O          -0.63956372636920   -2.69978221569717   -2.06181924421429
H          -0.93382158713221   -2.53286461651646   -2.95061493289466
O           2.50756757943974    0.64081110773243   -0.16918157544453
H           2.02019928403700   -0.18124133646235   -0.34377600447416
H           2.03089504643942    1.31102291203481   -0.68237901262581
O           2.23216446041037    0.89272078324556    2.46587239878492
H           2.43785377987793    0.90583327149428    1.49828779911846
H           2.94294716966652    0.40218120391459    2.88001563758676
O           0.63061248214200    1.91592261416045   -1.77754164722105
H           0.72659584995285    2.51694834158030   -2.51821627042002
H           0.36106884354387    1.04503708917919   -2.16203378722156
O          -2.29253480902115   -1.65224606645210    1.63533065420830
H          -3.23450285266704   -1.79914056434453    1.72696424976126
H          -2.14089995357165   -1.45196464009654    0.68907878719969
O          -1.42082976590552    1.64157360249951    0.02176688832767
H          -0.72375245314070    1.97313837749646   -0.56986280589645
H          -1.75794874461122    0.83215167632373   -0.40475805280777
N          -0.17378653124333    0.00660842057079    1.69336621342289
H          -0.66482127900709    0.81522409924458    1.22404610977902
H          -0.86668659791790   -0.54523111100687    2.20990368660969
H           0.16774094807763   -0.59347403355066    0.90386155478189
H           0.64660475968189    0.33292627631222    2.24617708518168
