    26
        -50.47201774  Gyration_radius:  2.51722439335 Dipole_moment: 1.459
 S           0.08323446336029   -1.30257777985227   -1.51458426380475
O          -0.92364141752098   -1.05536950211293   -0.48208091431566
O          -0.09648632250654   -0.42787541822223   -2.65312442070276
O           1.42217295008217   -1.29988935195784   -0.96436905655795
O          -0.17168751376664   -2.77422325375508   -2.03690606249241
H          -0.95535724375320   -2.66326054796518   -2.56444224161841
O          -0.03234654724934    2.02582889984000   -1.78205628510036
H           0.06246713889088    2.62221466073800   -2.52666246420795
H          -0.07822280312804    1.11396447246821   -2.16413236215189
O          -1.72830691703159    1.51026079972483    2.51524849687661
H          -2.54029212013588    1.26249401432370    2.95859182589631
H          -1.95339511161495    1.58493952531045    1.55489920301619
O           1.74446809252528   -2.30582627256662    1.51125828558649
H           1.65111372402590   -2.03059255976755    0.57702836335769
H           2.52386221500689   -2.86119315163427    1.54706880775817
O           1.89634702435968    1.19286666886951   -0.02657763367451
H           1.30177945945194    1.70790946754517   -0.59963166784810
H           1.99153567690027    0.33074588926739   -0.46908241131722
O          -2.15169445108052    1.35381048970697   -0.10803612806421
H          -1.91329444259975    0.42737172090797   -0.28348810242684
H          -1.52258249908762    1.86459276233774   -0.63940110248567
N           0.27716034622820   -0.05132894309612    1.66666842857826
H           0.97028186226910    0.58093745722143    1.18126977956229
H          -0.25546542850277   -0.51962525209784    0.89246808364619
H           0.78795690255765   -0.78658666956677    2.16419300349122
H          -0.38960702769693    0.50041190435403    2.24588079900406
