    26
        -50.47191006  Gyration_radius:  2.46909574541 Dipole_moment: 1.476
 S          -1.02012890182557   -1.61273877630695    0.56473492007581
O          -0.35157052204405   -2.63424204804040    1.33228797114216
O          -1.26780853812373   -0.37954947694703    1.28777716690555
O          -0.39086329854486   -1.35458359746695   -0.72509024237335
O          -2.46556232585647   -2.20909200231359    0.23857054130061
H          -2.36244922047294   -3.13526326858625    0.43159150991316
O          -2.39263814400310    0.29388210082637   -1.31036158662671
H          -2.93133626514691    0.21673640410954   -0.52048275594231
H          -1.70123611456280   -0.38519093446455   -1.20492253116871
O           1.33533743026941    0.26831079211503   -1.88732183809667
H           1.70399382891605   -0.21276865849201   -2.62940138330257
H           0.71986986914353   -0.35737408920429   -1.44275622672352
O           2.47493223186370    0.93229598936883    0.52573253502864
H           2.42286813940555    0.06069842214157    0.96549197179278
H           2.32155763801359    0.74573163211264   -0.41692205174628
O          -0.59012070340409    2.26726618889884   -1.61730552966760
H          -1.37374718155773    1.67839978593385   -1.64515615522299
H           0.13833806388115    1.72924907002744   -1.96792667078041
O           2.00255978549850   -1.47689882352110    1.64072522512817
H           2.28063894259052   -1.74845558883371    2.51727051094417
H           1.15202029356912   -1.93399298852061    1.47631163950257
N           0.05429868855362    1.87329465428804    0.89950418714757
H          -0.11439845158722    2.59046751238522    1.59490513057123
H          -0.23473632031096    2.18804674651365   -0.07864192707120
H           1.08389419192526    1.59376497585633    0.85340656979292
H          -0.49371312624686    1.00200595809262    1.11797898949814
