    26
        -50.46456680  Gyration_radius:  2.49526175918 Dipole_moment: 0.771
 S           1.46652347679697    0.25010346969900   -1.42088883895188
O           1.42179527890486   -0.08630990307336   -0.00439306120420
O           0.84954285929449   -0.76999465279726   -2.24568584365436
O           0.97358155647999    1.59033598811581   -1.67406564500622
O           2.99955822801596    0.27138202239612   -1.82873203835599
H           3.21567270815237   -0.65364120084921   -1.88434892319472
O          -1.25875436391487   -2.15216156966815   -1.52225139199788
H          -1.54852983640385   -2.72721559296412   -2.23160646878198
H          -0.43023086052873   -1.71843010588189   -1.83643647979989
O          -1.65630799625935    0.57169763471931   -1.22125638113496
H          -0.85487738530056    0.70484166831487   -1.74204451392481
H          -1.79171108840819   -0.38828561258950   -1.18866809550013
O           0.74511881332989    1.17251917503834    2.29580438861814
H           0.05942438939069    0.55108110269209    2.64087301582909
H           1.23202407797726    0.65871189395705    1.62662588172452
O          -1.11856262554232   -0.63485729716555    2.87174394140522
H          -0.80602269955538   -1.24732005512639    2.15830936525921
H          -1.05862771831329   -1.13206167729951    3.68825711256747
O          -0.04636250521511   -2.12091094654948    0.96464949599436
H          -0.62493891517136   -2.32841819626544    0.21684471513458
H           0.57350784153365   -1.44956633520122    0.62049228916398
N          -0.48509514252787    2.36210483359153    0.36035556586194
H           0.22090809301778    2.25733526207938   -0.41660623525128
H          -1.24788656408791    1.72595153906722    0.05500261556821
H          -0.02289460152481    1.97435286031238    1.26285068058729
H          -0.80685505015104    3.31875571546220    0.45517484904665
