    26
        -50.46845407  Gyration_radius:  2.58880904239 Dipole_moment: 2.632
 S          -0.34731353624183   -1.27866786879661   -1.41279030573662
O           0.71700604631263   -1.29311761980549   -0.40630956776020
O          -1.62524093541918   -1.64370045683450   -0.82850597013287
O          -0.37110548404862   -0.04070248127486   -2.15298343454070
O           0.00984719538447   -2.41575605309427   -2.45734933809891
H          -0.18420322718639   -3.23331486219755   -2.00753435815206
O           1.76247190837866    2.82508008106917    0.18779308727416
H           1.75244350648979    2.45710163476895   -0.72713244686043
H           2.67862454214964    2.80488368576524    0.46830416325606
O          -0.27659902318896   -0.40710918024332    3.33372360722172
H           0.36791290143207   -0.67106919618732    3.99119438742567
H          -0.48358140632724   -1.21796577665204    2.81065166996423
O           1.68856468882741    1.60944837693202   -2.18032967682889
H           1.55641379034873    2.09525867530520   -2.99623406065137
H           0.97529464704405    0.93304520706218   -2.15820829468292
O          -0.60203210190398   -2.42786408755358    1.61549126525268
H           0.05458338068490   -2.13526843458937    0.95467034483426
H          -1.43554486437532   -2.37918229524907    1.13271780519705
O          -2.26012500446936    0.89261719270729   -0.35721861305519
H          -2.25386441728036   -0.07868834405571   -0.47020224521547
H          -2.02006764059721    1.22820876306606   -1.22640185160808
N           0.06564892010178    0.89278144235614    0.99295958538391
H          -0.88761575675953    1.06332536541022    0.59012826902411
H           0.46384001904260    0.08543132223007    0.46157028931693
H           0.67891783371556    1.72551357337540    0.85081749137844
H          -0.02427596208944    0.60971131647286    1.99117819779108
