    26
        -50.46497105  Gyration_radius:  2.43061638627 Dipole_moment: 5.247
 S           0.06713363034837   -1.45684358652480   -1.19952442422840
O           0.03962032849969   -0.56207141305831   -2.34159197571265
O           1.16098653911467   -1.16814276035316   -0.29583893635346
O          -1.21242657182590   -1.51264834295632   -0.50209694622692
O           0.29828065841326   -2.90757331384088   -1.78113845835232
H           0.92523242836291   -2.74490239960188   -2.47770335602632
O           1.98497710334027    0.60472120617919    1.67590494804984
H           1.82763823617777   -0.19444893593386    1.15013528313918
H           2.22539806782736    1.26242375105403    1.00531559018103
O          -0.49137793190342    0.70414641514199    2.56144102072046
H          -0.57467513210711   -0.27128381914091    2.63793804830424
H           0.46791699205955    0.83112080584936    2.34779614983102
O           2.00726384199795    1.44889268699310   -0.93209940157982
H           1.79974131079936    0.50333331495345   -0.95163742026630
H           1.22976102498315    1.89370074982616   -1.28740526664487
O          -0.43288180685911   -1.93600752265024    2.04476068748484
H           0.50285236809938   -2.13386335696491    1.95973461950687
H          -0.77552668252524   -1.91752436075716    1.13293652142063
O          -0.66712787278546    1.89144017882005   -1.87174144947576
H          -0.93422074948513    2.32015692827171   -2.68607161259561
H          -0.41230224115257    0.96419259618093   -2.11751543370488
N          -1.82666693027574    0.89886477228996    0.38007166347555
H          -2.80591909306085    1.10425162877173    0.54773412043286
H          -1.71216038240475   -0.08228055027821    0.01686150527634
H          -1.43628936313387    1.52779844840182   -0.34274432407948
H          -1.25522776250311    0.93254688932763    1.32647885742517
