    26
        -50.46404542  Gyration_radius:  2.7129979945 Dipole_moment: 2.634
 S          -2.05857606446042    0.79807209599608   -0.98780010448354
O          -2.25429598370859    2.08716592129453   -0.35730338609357
O          -1.16463412132715    0.86957847936180   -2.13167296715023
O          -1.65404221290043   -0.23610282975159   -0.04243724403655
O          -3.46848870774199    0.33581737464259   -1.54382606269146
H          -3.68912546242592    1.04616812526382   -2.13730108389020
O           1.32604902446003   -3.09251537370248    1.12200589745732
H           1.98880533277381   -3.67353249236874    0.74710677134887
H           0.76488323183353   -2.79527588975896    0.36341298871662
O           1.87619504068991   -0.96728356185701    2.59386584643301
H           1.75121255725175   -1.80013819280641    2.07581641661190
H           1.40771153299241   -1.10322222088456    3.41880953913834
O          -0.00525895023303   -2.16414873860427   -0.98176657542663
H          -0.75127908887657   -1.61474862714944   -0.67948547065148
H           0.57590820994406   -1.55911080783799   -1.46185844307624
O           1.30992057756772    0.18477862512705   -1.87049155729383
H           0.36610698169936    0.45573210126545   -2.03515920429259
H           1.82565430228188    0.59258915046669   -2.56716308334297
O          -0.18254846786299    3.12736729360756    0.86125894414570
H          -0.53623449546549    3.64552710438126    1.58582540743569
H          -0.96812602249697    2.82177750366338    0.34421344129460
N           0.72658556652584    0.61149016501554    0.75476301908549
H           1.23557879878597    0.50205536563257   -0.14002968609721
H          -0.22709649435053    0.20480571388492    0.59222824092977
H           1.21882239067017    0.09820281872964    1.52592100132079
H           0.58627251439749    1.62495087638829    0.95106736463132
