    26
        -50.46809247  Gyration_radius:  2.53160482734 Dipole_moment: 1.579
 S          -0.83480410473504    0.79983893505205    1.80545508698155
O          -0.64061152238072    2.18102396136334    1.40310591497741
O          -1.86882018121760    0.14214615639118    1.01505445118898
O           0.38983847341296    0.03159075297861    1.84944695483365
O          -1.38153824841984    0.86198999974049    3.29126476458013
H          -1.97577020462923    1.60086804086909    3.22090027201020
O          -0.22497514367417   -2.13600639087359   -1.51873486347545
H          -0.58555176350572   -1.25163955645451   -1.74709965837813
H          -0.80936620191888   -2.45400246674658   -0.79772099958969
O           0.66035731519028    2.48014528484380   -0.80355679790256
H           0.69522971138966    3.42671972121599   -0.95165170987603
H           0.21299602966123    2.36517839738897    0.07769760121565
O          -1.69230328415103   -2.47846392144432    0.69852899252543
H          -1.72763045086812   -1.51622992700788    0.89606276762275
H          -2.60326910228003   -2.77615832838570    0.69088301261876
O          -1.08038625375050    0.40298198485917   -1.54609263059830
H          -1.49763838760253    0.34858402096612   -0.66610181698665
H          -0.49646446390613    1.17191001149950   -1.50158741163408
O           2.62494440815459    0.79951490819564   -1.54209568150440
H           1.99851508256514    1.47869841279613   -1.21416866366611
H           2.39464549131197    0.65306195730943   -2.46210216413971
N           1.71119627270709   -1.23990166416102   -0.03481711427879
H           0.97267170002577   -1.70524077276098   -0.67368054316302
H           2.36097845587024   -1.91985943155358    0.34265793345243
H           2.20686365965621   -0.49930665230735   -0.58265578050438
H           1.19089268309880   -0.76744343378017    0.75100808368091
