    26
        -50.46446228  Gyration_radius:  2.55716052057 Dipole_moment: 3.426
 S           0.15213946594284   -0.05279102959945   -1.98470445319318
O           1.40650110017889    0.08318970729974   -1.25679790810807
O          -0.41813597055289   -1.38306121464467   -1.78338079004406
O          -0.78244671498427    1.01256049903874   -1.73317888228877
O           0.52774387282849    0.03830199620897   -3.52106431755873
H           1.18532522299954   -0.64213267515645   -3.62275134893837
O          -0.29073200453102    2.49207433210095    2.14356130964117
H          -0.10525336627859    2.69413171168031    1.19781711553393
H           0.40913954231024    2.91083778999073    2.64584445561925
O          -0.64778637234596   -0.16149768234956    2.30476037185345
H          -0.57872799491090    0.81721735204571    2.33627808969269
H          -1.32271999359512   -0.35080520486178    1.61684640779476
O           0.25101267364347    3.04488562542634   -0.41474382880270
H          -0.04508643226211    2.25649300607637   -0.92006137439979
H          -0.22792208760301    3.78554686011495   -0.79168618966788
O           0.26879241581831   -3.29849606982945   -0.09268969984685
H           0.03499441930617   -2.69772994468494   -0.83427619047737
H          -0.56923112053115   -3.56772814216503    0.29033039026723
O          -2.13579724454923   -0.57659258037414    0.10419469150607
H          -1.59287212673963   -0.97593211049130   -0.60016606741583
H          -2.33197283121838    0.30257112228441   -0.23279758194101
N           1.38925349969253   -1.14870717350988    1.04756866081432
H           1.47111430534110   -0.58547578683624    0.15412766164220
H           2.27356111059510   -1.17555820225538    1.54180088483506
H           0.59873833221148   -0.71575241567382    1.65052009809786
H           1.08036831923234   -2.10554974980778    0.75464849539942
