    26
        -50.46951806  Gyration_radius:  2.42222698049 Dipole_moment: 5.943
 S          -1.21429816907212    0.48077512367143   -0.50666078723594
O          -0.94275819128058    0.77345586969849    0.90803837479904
O           0.04510388856510    0.31794289491784   -1.22943567084935
O          -2.05964232237641   -0.69635379839010   -0.63150579232988
O          -1.97708386178657    1.67890876135153   -1.10492519238988
H          -1.25073787526409    2.31817535380522   -1.37864906915893
O           0.15702351143929    2.99345562581254   -1.61071255134913
H           0.39528239681616    3.22993479749370   -0.68836130042128
H           0.56535198808637    2.13014904187868   -1.76694636944717
O           2.11806984637662   -0.44258537236391    0.41345107508473
H           1.43831281854825    0.05562978529983   -0.07085190945827
H           1.72608436867885   -0.65580809105214    1.26670104252102
O           1.39772214268265   -2.05318710989376   -1.60187941687451
H           2.02063998676873   -1.67998410015440   -0.94563943043292
H           0.92689395426912   -1.26511738737819   -1.91942488400689
O           0.35849095464145    3.07109287341837    1.05659352598648
H          -0.09619275794017    2.20163192348628    1.08970669575355
H          -0.19262762226587    3.68120869157081    1.54924633113415
O           0.02139231303690   -1.23976832970086    2.22795831799176
H          -0.30586181434100   -1.21118143784261    3.12812891334617
H          -0.36439077128305   -0.44578539877661    1.77068120973296
N          -0.55603183716016   -2.68728000156718    0.01743770712291
H          -1.27215283248181   -1.95276082594087   -0.29794251181770
H          -0.94893824204794   -3.62206051742623    0.01322562012302
H           0.27383667436940   -2.58979122854424   -0.65745461049864
H          -0.26348853697350   -2.39069713337466    0.96922068267978
