    26
        -50.47607350  Gyration_radius:  2.42597772807 Dipole_moment: 4.298
 S           1.32055679517363    0.57994304640378    0.68926469617593
O           0.68612683441532    0.40792333232626    1.99905428217974
O           1.34076022903826   -0.70183235628020   -0.02502176933267
O           0.70097221200112    1.62687815031121   -0.09053539804930
O           2.80484620120510    0.99840263849373    0.92734063515302
H           3.15706363783722    0.26477638688108    1.46972347522100
O          -1.07399688369457   -1.84496322453033   -0.29028613483578
H          -0.13319435150600   -1.58809447325638   -0.20131498393464
H          -1.36304174614987   -1.43851291008566   -1.12725702747337
O           1.00352595820980    0.34987085537730   -2.45032535073913
H           1.01418083966316    1.21755279330475   -2.02391164564124
H           1.27723325572916   -0.24234121212611   -1.72520903391998
O          -1.56710727074344   -0.19086183324218   -2.43435680193404
H          -0.59547908635357    0.00989201866866   -2.53193681048674
H          -1.90267077238448   -0.33868525363488   -3.31931864366846
O           2.78266249654255   -1.28093687248923    2.26159435333099
H           2.49963951885829   -1.71382828199823    1.44736960351258
H           1.98346115487378   -0.85956861039095    2.61119035094458
O          -1.94707093170145    1.74466416196197   -0.49805687372564
H          -0.99505712155928    1.93470850978208   -0.38042016926010
H          -1.98877765380732    1.16041084162352   -1.27610993510525
N          -1.83426351879958   -0.02254093021217    1.42508106443655
H          -1.69249970180036   -0.89617931758603    0.83079195588762
H          -2.06684951946007    0.76421522506487    0.74113831967270
H          -2.53143831438862   -0.13950739451149    2.15125350601668
H          -0.87958225116641    0.19861472015266    1.82025834555240
