    26
        -50.47192555  Gyration_radius:  2.43562615558 Dipole_moment: 1.716
 S           0.06625578169910    2.03958399813369    0.00562844134301
O          -0.49506164003191    1.58769796525615    1.28304974512292
O           1.49851179447062    1.81325361607555   -0.05539058696119
O          -0.66339614485108    1.51428809482897   -1.12252105114661
O          -0.13045727246470    3.61027231379893   -0.02405304836330
H           0.53389539762261    3.91126407943386    0.58714630122433
O           1.58774371383379    0.07435448391381    2.05678860860556
H           2.19725363589602    0.41611572925937    1.39404996424439
H           0.81764401401266    0.66571796180871    1.97867927964607
O           1.54177400321006    0.27322604973294   -2.18486460361884
H           1.70671710315172    0.83009994373394   -1.39513371577516
H           0.76622044699415    0.68232802217264   -2.58293370224595
O          -1.93911647553084   -0.82197889436259   -1.42341945432940
H          -1.15491996759513   -1.38733872560542   -1.54144133406387
H          -1.59992446586623    0.09240149176382   -1.48499539714251
O           0.55696554443935   -2.01293442993906   -1.35543266375953
H           0.93224766861060   -2.70946942682581   -1.89575329644216
H           0.99993051539131   -1.16908010386893   -1.64491201990254
O           0.31764953679480   -2.18398467668206    1.38850492314949
H           0.91760845333748   -1.48416472893154    1.73137312926213
H           0.50240227822287   -2.24765750586975    0.43438440207174
N          -1.82368813663292   -0.70315171817166    1.19241941136833
H          -2.61871703202770   -0.83193772710617    1.80696019057291
H          -1.41054144942323    0.25794099713143    1.29419892685694
H          -1.03181014201135   -1.40099492066836    1.39360329670080
H          -2.07518714125836   -0.81585187900807    0.16406426359575
