    26
        -50.46855202  Gyration_radius:  2.56648393301 Dipole_moment: 5.169
 S           0.20225825065729    0.94511783332982   -1.58552680479492
O           0.83781805751207    0.83350808693554   -0.25798587664662
O           0.53458214357709   -0.23368834368306   -2.37740574519537
O          -1.21645346218944    1.17477638852203   -1.46207179081024
O           0.82502880340003    2.19612328132756   -2.27871811924607
H           1.77041296415500    1.95618656772435   -2.34528349939989
O          -2.52816542253923    0.50316211460817    0.66738223838216
H          -3.46378386950935    0.49423161345347    0.46035577431157
H          -2.07552637635399    0.83290126412660   -0.15231918030892
O          -0.26081556992742   -2.58347574109318   -1.45715795291722
H           0.19675220045235   -3.25841288156978   -1.96024443672201
H          -0.02904435996866   -1.72562628170031   -1.88180029052176
O           3.00243585153538    0.71740003100609   -2.01905855989339
H           2.31608392013076    0.09940997432072   -2.32361425208883
H           2.92607148729077    0.72410330049770   -1.05912000122110
O           0.28012506289093   -0.74826171843859    3.36034043139516
H          -0.03728146564161   -0.76874313565852    4.26327282052458
H           0.16545625962264    0.17882637345166    3.04367832815809
O          -0.29746746954166    1.56982172603066    2.13331704528023
H          -1.21127918434106    1.45631683183498    1.84170318944526
H           0.23281381862410    1.52289104112473    1.31989010945747
N          -0.43643047373634   -1.21351913345376    0.82667541995332
H          -1.39171620237898   -0.80696697070464    0.84122952198770
H          -0.13120642271370   -1.40306102269218    1.79870639816137
H          -0.38846188281318   -2.01329698440496    0.17151350768389
H           0.17779336132921   -0.44972421501136    0.43224172502217
