    26
        -50.47172744  Gyration_radius:  2.52481453063 Dipole_moment: 1.012
 S          -0.37160584910988   -1.42889686881897   -1.35009924028354
O          -1.68813164398322   -0.97151781814773   -0.92969964062202
O           0.07929131196929   -0.78686641801577   -2.56745140318014
O           0.58972429875464   -1.34536573167321   -0.26206503706179
O          -0.50769427228658   -2.96604686141449   -1.70286840069871
H          -0.71449298730972   -2.92911171648257   -2.63047945160019
O           2.53277164634817    0.56673770667461    0.00765062981729
H           2.04140939250214   -0.26478806693813   -0.09643178378994
H           2.13159720915002    1.16079504130746   -0.64507005889740
O           1.99406750425839    1.21130906877365    2.53308120682388
H           2.29926378832638    1.07729672321185    1.60163115507786
H           2.64197556016961    0.77613934441508    3.08824839123304
O           0.87187994058923    1.61950595076201   -1.95877215628719
H           1.06625000585898    2.10189570569925   -2.76410495236676
H           0.61472117730544    0.70622458144764   -2.23938314380137
O          -2.50258911128034   -1.34994244159304    1.60720153836771
H          -3.45559846051667   -1.44482351285667    1.61831697470351
H          -2.24688269484281   -1.29923071027916    0.66347048424257
O          -1.36410559402965    1.64778796094391   -0.37093466830661
H          -0.59977350153305    1.87723779865007   -0.92678715375927
H          -1.67965810685611    0.78888200208613   -0.70781597004141
N          -0.34573501572507    0.25951810096961    1.64376221035077
H          -0.75988749209828    0.99765396583471    1.01231039340920
H          -1.10621889433483   -0.19931431321303    2.15670688684762
H           0.05710385699312   -0.45586034395964    0.99105994840191
H           0.42231795168799    0.65078083261126    2.22852322142242
