    26
        -50.46084585  Gyration_radius:  2.57581819523 Dipole_moment: 1.307
 S           0.44105794294043   -1.49503856895206   -1.43514699349897
O          -0.59363633043543   -0.50784350069384   -1.70848726981927
O           1.75464639361494   -1.10445758394816   -1.89161853675214
O           0.42150725618736   -1.92719623783237   -0.04432095863664
O           0.03755903343272   -2.76657373712714   -2.30141843507561
H           0.85616841978972   -3.25079748293873   -2.33988807777459
O           1.81656631243251    0.85408074855538   -0.09341450048273
H           1.96000404823783    0.08676913928737   -0.67543533838649
H           1.37846916905934    1.50990322757366   -0.65988272389603
O           2.03345425743116    0.66491158438781    2.56176859822816
H           2.10516787316309    0.87855396996544    1.60747809397724
H           2.70259205052002   -0.00025963722837    2.73098791351024
O           0.35841044198118    1.94567932154349   -2.15710962236127
H           0.94956154719994    1.99098386220789   -2.90998401063587
H           0.00987813498091    1.02990612247352   -2.14653358317846
O          -3.11789375182075   -0.31888997852207    1.81301334403966
H          -3.70888461450607   -0.95329987630850    1.40553677046865
H          -2.93954515390341    0.35690528580768    1.14449175428063
O          -1.73122093409453    1.27522908681806   -0.11988534441222
H          -1.46718463088589    0.55862054536506   -0.73789547275509
H          -1.40521226279713    2.07955541288786   -0.53352187621786
N          -0.37186221263542   -0.18221462624577    1.72952053102930
H          -0.72838056674819    0.59307061740956    1.13470677101901
H          -1.16248537079124   -0.50986320955855    2.28950742269995
H          -0.05432317860070   -0.94057886478021    1.05548692100719
H           0.45558612610518    0.13284438976793    2.28204461362866
