    26
        -50.46999605  Gyration_radius:  2.5176332587 Dipole_moment: 1.014
 S           0.89486291163571   -1.05645693375882   -1.27653440290098
O           0.15870458816647   -1.98660232475211   -0.44605133733892
O           0.04971292987050   -0.21859310320655   -2.10369430750011
O           1.83117505015215   -0.25328874039559   -0.49307602777289
O           1.76230207742475   -1.93844585748802   -2.26035375977115
H           2.12507388771481   -1.29768898192769   -2.86388172180501
O           1.02318272631238    3.09806318849909    1.50378118523984
H           1.08802473137224    2.98026714904079    0.53119853935583
H           1.86685529615545    3.45345706581923    1.78526209463680
O          -0.56861233636662   -1.86850588632806    2.22287415175174
H          -1.50401149469428   -2.01698914965959    2.05064824488577
H          -0.12315643491111   -2.13460466183538    1.40155601895675
O          -1.83577928318682    0.66270292717472   -0.46558146636040
H          -2.34193337010513   -0.14816554062056   -0.28025946139241
H          -1.24025309838167    0.42017585264840   -1.20416387297629
O          -2.47562929031605   -1.96383997915109   -0.07635482016325
H          -1.52058824334626   -2.05881671940228   -0.28029582014414
H          -2.94401239749650   -2.48089927407292   -0.73278367033253
O           1.26368018053551    2.30949420868090   -1.07998228129526
H           1.60624012862960    1.40752546822151   -0.93509909086027
H           0.48233663331751    2.19604194359104   -1.62710947521493
N           0.08174388156235    0.58667529270803    1.35846221087589
H           0.36430454124688    1.49635648645914    1.76816145795227
H           0.86101158147657    0.24346606089952    0.75494682754144
H          -0.15326141324370   -0.16873995252025    2.03111409882782
H          -0.75197378176865    0.73741147211035    0.71721669548831
