    26
        -50.46864653  Gyration_radius:  2.58634178223 Dipole_moment: 5.346
 S           0.75529196374022    0.76601275573484    0.60434226529490
O          -0.21721643198525    1.36084184116599    1.50016941813589
O           0.48435970207850   -0.67248462470184    0.40260287623832
O           0.82349127585334    1.45836054331687   -0.67338433542253
O           2.16473970127034    0.87089440230465    1.24242159134758
H           2.17562207998169    0.14064817727342    1.92569572762905
O          -2.03953363155910    0.03781575520772   -0.04041292384723
H          -1.91943318687796    0.79812413252190    0.54240501087443
H          -1.21043798222205   -0.45562043083517    0.09003579801691
O          -0.19621698221062    0.36689467262999    3.94307272576354
H          -0.31082084931793    0.76842273242859    3.05248384411637
H           0.01981237129211    1.09113610609427    4.53261966312305
O          -2.38997363185492    0.53105121676754   -2.61991672480890
H          -2.77327227578966    1.40884720039858   -2.65894326030332
H          -2.37115121554485    0.28770278490531   -1.66093702422690
O           1.70684254955275   -1.12543904011910    2.79824491288531
H           1.18506017504876   -1.44065212149755    2.04724019792293
H           1.05571563639104   -0.72481903979062    3.41432150969969
O           0.83704735129482   -2.11868621542128   -1.75644205877911
H           0.81745803956427   -1.63442494369394   -0.89671946929014
H           0.21617604237383   -2.84374251437339   -1.66362039881481
N           0.24208543081974    0.22583533153275   -2.86222050769091
H          -0.80127910476065    0.34233394773969   -2.93918521605824
H           0.54251933703984    0.78216626196933   -1.99254220841522
H           0.47458552927044   -0.77367863001045   -2.64210300930999
H           0.72852807657259    0.55245970846483   -3.68922842408124
