    26
        -50.47095881  Gyration_radius:  2.42163111332 Dipole_moment: 3.081
 S           0.51719501333836   -1.31059727539506   -1.22336618676127
O           0.50310120411141    0.13214191951032   -1.36802000884164
O           1.66767984698488   -1.80700967420970   -0.50598814220120
O          -0.73879409656342   -1.81306150596963   -0.66717219436360
O           0.60636187071529   -1.88650962559381   -2.69382200999718
H           0.77428627066961   -2.81001269294726   -2.53976661815675
O           2.53322932230050    1.24139650419371    0.00124737571119
H           1.87720767559767    0.81190262437313   -0.58404861470089
H           3.39289241663360    0.94499544273407   -0.30113081239263
O           1.66458286657296   -0.55512697148492    1.84359930810263
H           1.77853789373813   -1.18162310222573    1.09993487071989
H           2.02232540055977    0.27811274129307    1.48698956576366
O          -0.10810542937288    2.52256055011753   -0.12128936998170
H           0.76456187601270    2.71020668304709    0.23433640914506
H           0.01710656783090    1.74888205806024   -0.69280701007501
O          -2.40511418590973    0.17670583401388   -1.38712018045860
H          -1.84703292002823    0.70983334013580   -1.95840885177893
H          -1.88591292328102   -0.62529790910110   -1.19636971853581
O          -2.25013685913239    1.38918836659723    1.02182757820951
H          -1.54491263034184    2.01213101640349    0.75237073871699
H          -2.57219137192306    1.02082535796933    0.17144440985330
N          -0.96137733291795   -0.74721574627221    1.75151422389426
H          -1.50208741704949    0.17289103969954    1.56539995313162
H          -1.39400905940406   -1.27843036014995    2.49934389108566
H          -0.97297149228595   -1.28899205412651    0.85455607315787
H           0.06357748313241   -0.56789657066567    1.95674533075115
