    26
        -50.46427094  Gyration_radius:  2.53903023651 Dipole_moment: 2.249
 S          -0.28011688542514    0.88130299697693    1.72445811179221
O           0.43451439165364   -0.27587620466584    2.24267217443353
O           0.45144284291654    1.51261447019439    0.63590356697778
O          -1.66078379359170    0.60973288681981    1.39317507744084
O          -0.31339640181064    1.94579723937811    2.89879754294750
H           0.60834544586674    2.14395956389320    3.03133873833604
O          -0.90200800750204   -1.92900437266783    0.63154352412639
H          -1.72860011763257   -1.45384555442546    0.76056383352677
H          -0.30124976520657   -1.49973758402205    1.26708935402821
O          -2.98202648228077    1.58446674401490   -0.66374707322450
H          -3.80088024473644    1.08773639400939   -0.70415091078015
H          -2.54835254568106    1.32410148035927    0.18180415742539
O          -0.17124947260964   -1.50269169404669   -1.92389681340755
H           0.80519907332378   -1.45962048014365   -1.89277003276281
H          -0.44815419946106   -1.80358439652520   -1.03089038523280
O           2.72688494452167   -0.91567917280860    1.08952510822261
H           1.90977888523889   -0.56495235866834    1.50268837220224
H           2.82576413956028   -1.80321048116915    1.44100099974454
O           2.43507011744141   -0.94943065924477   -1.58519504221214
H           2.53609316351004   -0.83318590971459   -0.61490754286859
H           3.25281861858431   -1.34104038120269   -1.89353675579271
N          -0.57183158295544    1.06074364873971   -1.72626746240241
H          -1.57300310636625    1.29649216435181   -1.56356765137297
H          -0.07424207903889    1.28083725195728   -0.81653133170161
H          -0.45452353869441    0.00093809640193   -1.89976792396943
H          -0.17549339959493    1.60313630215630   -2.48533166548318
