    26
        -50.47679053  Gyration_radius:  2.36805842734 Dipole_moment: 3.216
 S           1.11262678176703    0.88094459692605    0.62128204692452
O           1.60756685366600   -0.35670031359843    0.01744095063499
O          -0.20047143228976    1.22054601859137    0.04917674418065
O           1.04630254369731    0.78349040395108    2.06448332063353
O           2.09208136893420    2.01964678132430    0.25643475997474
H           1.88018521390477    2.20916894207868   -0.69503912161645
O           1.07866173727708    2.19652148575224   -2.12427887236553
H           1.19251560589676    1.31395659115428   -2.52761121312482
H           0.24584539190218    2.14314570125014   -1.63595256400473
O          -2.60593429703520    0.59264554044358    1.06647493263608
H          -1.81161300822195    1.06211510484793    0.74236170516137
H          -2.92464708680196    0.09289701043452    0.30833029495372
O          -1.27918980631597   -0.82600556510718   -1.30263393172845
H          -0.72871458327613   -0.93560981763952   -2.08639790437325
H          -0.89622582779230   -0.04878807011741   -0.84643063420626
O           1.26802782490054   -0.48118364172444   -2.56622381826882
H           1.44098096077971   -0.49718600940414   -1.59202985291513
H           2.01592508270701   -0.91658359941282   -2.97733648288145
O          -0.08030633760592   -2.35484459844958    0.55477547793888
H          -0.67375016581763   -2.05710133213206   -0.16795546568554
H           0.72342057347732   -1.81486018503373    0.41478733472528
N          -0.91827096114907   -0.86042282780205    2.52077800501749
H          -0.63992049194551   -1.63082915331065    1.82894514008735
H          -0.10685698234012   -0.17385551816856    2.50055812048775
H          -1.74626535643099   -0.34921012855728    2.12040138374622
H          -1.09197362186494   -1.21189740628356    3.45565963407706
