    26
        -50.46757130  Gyration_radius:  2.39725610344 Dipole_moment: 3.763
 S          -0.45199167859610   -1.80591422288039   -0.78997321154608
O          -1.11145933062208   -2.56079316780848    0.24696960486680
O          -1.15918465329915   -0.58107705749930   -1.14181061336091
O           0.94988607828940   -1.51885976457580   -0.51081349268095
O          -0.47344514977944   -2.73450799263012   -2.07178971497343
H          -1.03604609978638   -3.42367036970447   -1.73837360045559
O           2.00527888561637    0.66945824749393   -1.47000745132751
H           1.57398302363573   -0.18512467228775   -1.22102782973972
H           2.94622271829904    0.48670471893282   -1.48187832862290
O           1.37705055925532   -0.54545869676566    1.95060297301717
H           1.38186981570017   -1.06575670923514    1.12298414637552
H           0.50145960482189   -0.75465287806051    2.35572198562552
O          -0.45422144050440    1.98603202388222   -1.87334814126743
H           0.39418341929063    1.90820866514068   -2.31632939857904
H          -0.77344786982760    1.07301517677615   -1.79552734278012
O          -1.18908151235932   -0.97991147436396    2.40303850341011
H          -1.25668336383689   -1.66063417076426    1.70408897102467
H          -1.67164526505127   -0.21330451587709    2.07545774713288
O          -1.80847821287181    1.21970388808366    0.62148417042568
H          -1.65658401860109    0.47206406119117   -0.00929096306003
H          -2.26003884503116    1.88982662223772    0.10210748288140
N           0.84222173167407    1.69844930564943    0.77416976403419
H          -0.20662316819448    1.66319778841665    0.69831480503963
H           1.13924765833814    0.84085741725701    1.37106363881149
H           1.24440867402465    1.54391287628304   -0.17559669721637
H           1.15311845941665    2.57823489110771    1.16976302296413
