    26
        -50.46811973  Gyration_radius:  2.53477883037 Dipole_moment: 5.660
 S           0.85539726099059   -0.02890588774822    0.28350242485135
O          -0.34712449632838   -0.60878305292344   -0.35209392074101
O           0.91281453873527    1.40784865280944    0.01220841322134
O           0.85413446548799   -0.29809510174448    1.70741310836826
O           2.07950500460263   -0.71084912566239   -0.33136915109036
H           2.05208643101403   -0.58579436262197   -1.35642105207423
O          -0.22585351593722   -2.11292251578465   -2.55755859682981
H          -0.38655961468018   -1.56863995065176   -1.76027449114447
H           0.05272294970425   -2.97369947661539   -2.24036505829769
O          -0.98700747656663   -1.64932803978880    2.98918748424681
H          -0.73439713087342   -1.70125605914181    3.91207668705040
H          -0.20523767061912   -1.27782868943032    2.51286869734939
O           1.85066808234764   -0.41874899082643   -2.82833765094398
H           1.12561003627059   -1.05741094010683   -2.99141356147393
H           1.44110943112018    0.47132586222010   -2.90855742724266
O           0.72590712720383    1.99315134474333   -2.54753491596149
H           0.71983611571836    1.83060243379574   -1.57814019838354
H           1.28752578290789    2.75835341773238   -2.68299855438313
O          -0.59015731184128    2.15020177243835    2.00643025137419
H          -0.01042709976068    2.03382040450698    1.21483103541891
H          -0.04887467285125    1.83185176087551    2.73416041218350
N          -2.13130474260513    0.10852865896927    1.35617204638928
H          -1.99220388455359   -0.60386569629167    2.10551840424883
H          -3.10220269667117    0.21378201569486    1.08343368249248
H          -1.68525155190424    1.01852403049804    1.67295357876887
H          -1.51071537090612   -0.22186247494310    0.54430834260295
