    26
        -50.46754273  Gyration_radius:  2.46482038617 Dipole_moment: 3.602
 S          -1.31509511174575    0.44260210423035    0.52868418009155
O          -1.35063525653355    0.22800710186098   -0.91100661710546
O          -0.21928370368785   -0.33211863330705    1.13917277025529
O          -1.21202667603631    1.84939610900207    0.87761725466002
O          -2.63963253599291   -0.08646643184967    1.13394273532332
H          -2.52755702349854   -1.07603096837940    1.16068587387560
O           1.33335132752606   -1.68872026808678   -0.61839538406507
H           0.68237909938283   -2.21116778385259   -1.10336219894723
H           0.82740712405338   -1.25025369670487    0.08945146733937
O          -1.27527005366211   -2.30140216061339   -1.56436238512978
H          -1.32093893580015   -1.32686402506249   -1.40226842613481
H          -1.81403399102795   -2.47036643968826   -2.33843221936405
O           2.47603888924757    2.46510042835000   -0.53528094565273
H           2.04094389540942    1.77262068197045   -1.11591691686896
H           2.24228522880299    3.30979305453276   -0.92382882223040
O          -1.84691767109238   -2.54787395530525    1.07093231195570
H          -1.71771288244433   -2.70555602713350    0.11499823181944
H          -1.00318235964741   -2.20250672433241    1.38985639776688
O           1.14184099283047    0.68882046775382   -1.87458282979959
H           0.19372345420493    0.69210229022531   -1.65157279171894
H           1.44961709888173   -0.19397209908884   -1.58062171723728
N           1.20632315230920    1.80793987657362    1.65501401635066
H           0.19416266615251    2.08409741759033    1.42824571523145
H           1.82152260980300    2.11631589784310    0.83477500373606
H           1.53410075620683    2.15907398857121    2.54811223437430
H           1.09858990652815    0.77742980469835    1.64814305180524
