    26
        -50.46414036  Gyration_radius:  2.71025915057 Dipole_moment: 2.747
 S          -1.59105591392456   -0.86640386836793   -1.63112524426796
O          -1.61221579561819    0.06222361679862   -0.49184452735991
O          -0.49933221975377   -0.53734068663846   -2.53291710516953
O          -1.61746788727644   -2.24073931698853   -1.20517502419038
O          -2.92328925729090   -0.59805509792026   -2.44131998643128
H          -2.73363314595095    0.23242368278400   -2.86650673548505
O           0.59730076531659    3.03765092347371    1.66626179627466
H           1.28950343158298    3.68642729535279    1.53417478447967
H           0.30014678000872    2.76794844074999    0.76288142556564
O           0.94202832842048    0.81344484249845    3.05909379454445
H           0.87285621444062    1.68261237271899    2.59381206463681
H           0.26195554889562    0.82577554271273    3.73419027042441
O          -0.00077756371673    2.18869163579887   -0.78407623441102
H          -0.70145321658183    1.51193369121742   -0.70939766846668
H           0.76923242859019    1.71737569506699   -1.12578995221407
O           0.01827488706605   -3.31460465126648    0.55403864269871
H          -0.49666100972168   -3.94170435518371    1.06401910671037
H          -0.57140702114233   -3.01976268549773   -0.17835227735306
O           1.76605684267122    0.02463343180581   -1.42930565572280
H           2.47853586923808   -0.35571320012905   -1.94463274421563
H           0.92714879265723   -0.20546601519350   -1.91311608774388
N           0.51591052710441   -0.69797250729337    0.87930973279758
H           1.22677385831959   -0.45693903174635    0.16433066302564
H           0.46552907707957   -1.73321820760672    0.97460173226736
H           0.71951475783315   -0.20658394366288    1.78271255459794
H          -0.40347506825725   -0.37663759347087    0.48413265500865
