    26
        -50.46833118  Gyration_radius:  2.4516582035 Dipole_moment: 2.569
 S           0.01687546551039    0.12400735088851   -2.07839375183945
O          -0.72467865788211    1.29281893293429   -1.61478698342673
O           1.40963554036263    0.17729318466807   -1.67124040839394
O          -0.64105453099260   -1.11647712131208   -1.72937797735322
O           0.01745330881669    0.19222958598716   -3.65916631377029
H           0.60615730388255    0.92045357630521   -3.82612748126996
O           0.43155234282313    1.14741945412082    1.82611059316950
H          -0.47687504126435    1.06011639478262    1.49778779794378
H           0.81369803382075    1.85045035215124    1.26230376961041
O           2.01515162065422   -0.74182984027799    0.75755762944295
H           1.97079510201966   -0.40914329489931   -0.16320133168468
H           1.55406810546130   -0.05509757875503    1.29221469615807
O           1.22141866117047    2.60791000995617   -0.30549989880728
H           0.44317498684680    2.29300089884020   -0.80202943940493
H           1.94832418929161    2.08094120629615   -0.65125735698849
O          -1.54800752846272   -1.28310160891718    2.28638893794158
H          -0.95538125002279   -0.78318408198752    2.85607433497962
H          -1.93187523303113   -0.62774871089796    1.67549756285628
O          -2.04867954670337    0.77351428278646    0.56988136219645
H          -2.80364806360029    1.36411515442833    0.55775702950911
H          -1.59855691483858    0.89661078605902   -0.30136119684030
N           0.05113340569107   -2.39179565594383    0.45028578243630
H          -0.28934143996531   -1.98641041058301   -0.46374340003180
H          -0.63675470155617   -2.13927488154043    1.20167692872137
H           0.18942409091251   -3.39288164997398    0.37968967275220
H           0.96599074094382   -1.85393631495352    0.65295944220609
