    26
        -50.47185904  Gyration_radius:  2.43761020578 Dipole_moment: 3.879
 S          -0.25108608832395   -0.94157226912957   -1.78628163382838
O           0.04628707581838   -1.88117312585076   -0.71022083809149
O          -1.51331603320063   -0.25151737119226   -1.54136183507705
O           0.83477824135938   -0.04306601100805   -2.09195759609715
O          -0.47223578298636   -1.82585066607463   -3.08065214048621
H          -1.09277965314053   -2.48425877531507   -2.78621647660307
O          -0.15237800219162    2.32462796744677   -1.43639058819679
H          -1.04749841964558    2.21051843431640   -1.76326610646324
H           0.31944638337771    1.51923118531115   -1.72932250046464
O           2.49883787777586   -0.97912014517480   -0.22824764909634
H           2.41785551415403   -0.40011544446135   -0.99854414517678
H           1.72155997572454   -1.55997479451525   -0.32702521193355
O           1.66631534079925    0.31069155835344    1.89621276530712
H           2.39326893598605    0.42142647076355    2.51019452356324
H           2.04917191894532   -0.13068854012581    1.08882527530876
O          -0.38442662472674   -1.54544188847125    1.93215415213995
H           0.37998646778987   -0.97442553701114    2.12995030811316
H          -0.21853936159634   -1.88169743695620    1.03102030390634
O          -0.18571873409300    2.25815384837968    1.23501364023570
H          -0.06744981586100    2.44729334706449    0.27686937023340
H           0.57088202955143    1.70536016623382    1.49867746499010
N          -1.93874897376467    0.34507650126457    0.98633375941849
H          -1.86764701187902    0.11521440322823   -0.04130028002410
H          -2.90127870147649    0.48308549059063    1.27057897132476
H          -1.47276772352678   -0.45728284276125    1.50487926569204
H          -1.33251883489098    1.21550547570926    1.16007718193911
