    26
        -50.46259028  Gyration_radius:  2.53192584294 Dipole_moment: 2.574
 S           0.10492463424325   -1.56692487272562   -1.20880538022014
O          -0.07171554058392   -1.64634469792037    0.24100013830340
O          -0.73568464313123   -0.50789854472281   -1.76715600485505
O           1.47727725798293   -1.50258095839518   -1.61578824435292
O          -0.51262768231984   -2.90752441613197   -1.79475038451451
H          -1.42394951200217   -2.66488793986233   -1.92324487311345
O           1.93492891886585    0.66979981350389   -0.11588285180581
H           1.65945327512815    1.24368536818309   -0.85171062154682
H           1.94808908368066   -0.22066504627110   -0.50331012618822
O           1.67533236263649    1.50726305037423    2.40158365378959
H           2.22857901035973    0.95988910545605    2.96088269999235
H           1.93781826095075    1.30205842146297    1.47850656982851
O           0.85163645429797    1.51657781203150   -2.47226136576468
H           0.27613625021844    0.73477706310989   -2.34033422617277
H           1.50216608215326    1.25137417809296   -3.12444701930686
O          -2.04318386677194   -1.76144442352783    2.13610436622335
H          -2.15620734335991   -2.60143757802314    2.58182964993566
H          -1.38188251788054   -1.90810221487453    1.43755970783536
O          -1.53251662723276    1.83400173154821   -0.69168723660172
H          -1.45225826506735    0.97417956934954   -1.14794018237806
H          -0.89171660269140    2.40026617519388   -1.13263444132419
N          -0.68793663027092    0.59902524092130    1.51443221600741
H          -1.42141608138693    0.24413612017947    2.12936677779158
H          -0.31425098375696   -0.23579737409116    0.99110312166011
H          -1.07696208830922    1.24806915987900    0.78574630140770
H           0.10596681423987    1.03850524725377    2.03183774536249
