    26
        -50.47334107  Gyration_radius:  2.42284052216 Dipole_moment: 3.255
 S           0.17101674599856    0.88383701159993    0.95513104005136
O           1.46815929573622    0.33866381328760    1.35909428124847
O           0.25314700570417    1.45100179665229   -0.38888840507498
O          -0.88122810804454   -0.10571897791493    1.06698581387102
O          -0.19298637994214    2.04731180708014    1.92867739698862
H           0.56946162900122    2.65298752656242    1.82484968556953
O           2.10456148975286    2.93978825195802    1.01257181491390
H           1.75125462404493    2.88787461768236    0.11643307595429
H           2.36252509433108    2.03252937023049    1.23291759819764
O          -1.95132301172045   -1.04858171039664   -1.22739641404239
H          -2.37620580210371   -0.27789893268443   -1.63254635783851
H          -1.66989156975077   -0.70864164598433   -0.35610138014691
O          -0.86192208391181   -2.80515741848098    0.98080066246103
H          -0.99313947875590   -1.89622259061231    1.30757373984775
H          -1.47365598084406   -2.89125204242712    0.24161563022094
O           0.57098439135980   -0.69080981341948   -2.00524474317937
H          -0.37984018725030   -0.94917287714361   -1.96123299119547
H           0.57995699237011    0.20121520509035   -1.61020078410836
O          -2.26197227689045    1.68283834541387   -1.38509528966357
H          -2.75439312464309    2.17776458311485   -0.72915602296599
H          -1.33473428302682    1.68289190116437   -1.08498059380722
N           1.48850982067288   -1.95130723080453    0.07262787978409
H           0.65555695240696   -2.48311686914445    0.44164958626081
H           2.32634679672668   -2.52132202956188    0.03654699138735
H           1.21564344031548   -1.54409722943594   -0.88813377503170
H           1.61416799846647   -1.10540486182593    0.69150157029486
