    26
        -50.47395392  Gyration_radius:  2.40824390135 Dipole_moment: 3.054
 S          -0.24054558701007   -1.15781322243138   -1.30503018549257
O          -1.39005432220590   -0.62125773251948   -0.58829545366894
O           0.88915898014008   -0.22225328035562   -1.24665866431580
O           0.12968745615952   -2.47521196341686   -0.83888280181140
O          -0.64013829611577   -1.28071862007558   -2.81655508946007
H          -0.70619919161851   -0.36206180134427   -3.12004080087932
O           2.09786235268767    0.19259560081564    1.08979407542882
H           1.50202857739481    0.87253819984456    1.44952998301095
H           1.82595865723972    0.10282067460175    0.15337443969035
O          -0.01263485984629    1.82678554874820    1.80184392262218
H          -0.14485463461440    2.63423087523496    2.30026927864869
H          -0.44907981584696    1.97095829059546    0.92262241374900
O          -0.06860424132174    1.38711898468390   -3.00880876986440
H           0.44214092974762    0.90711972865499   -2.31328529644464
H           0.56208062344401    1.65084380000852   -3.68135515986784
O          -1.36117577588416   -0.57544799075947    2.09349030316823
H          -0.97135923015783    0.31350002182304    2.18017993689088
H          -1.60906341192908   -0.63932250035838    1.14949348878595
O          -1.29750558302601    2.02081305745617   -0.49315430686591
H          -0.93378362739149    2.24487325197633   -1.35664780222437
H          -1.47166112504286    1.05686429956677   -0.54265222452193
N           0.78541589245259   -2.00126938424759    1.65947258346508
H           1.48147830263720   -1.19996328618906    1.55129769546623
H          -0.11661945028408   -1.55343769077746    2.01505563464941
H           0.57296028636282   -2.34831923903491    0.68480311228714
H           1.12450710469955   -2.74398561202019    2.26013969790889
