    26
        -50.46512186  Gyration_radius:  2.48150406537 Dipole_moment: 3.150
 S           1.64877909007222    0.81189192879669   -0.05194491644870
O           2.51097572861845    1.25259892906052   -1.11055433255576
O           0.48601280929138    1.66013846573195    0.16472171021981
O           1.26379704786472   -0.59417371367808   -0.11492724427708
O           2.50947690956479    0.90655141146566    1.29257515659823
H           3.05550872610571    1.66900925750214    1.13241881404104
O          -1.56572405790780    1.42048562847746    1.78936511381335
H          -0.75089222646812    1.65243108960534    1.29114224177117
H          -2.28287509648914    1.87515266780361    1.34205904446462
O          -2.68567765322896   -1.18748895728686   -1.17382545733283
H          -2.66444205177432   -1.79231702468807   -1.91642195486549
H          -2.21511478358839   -0.36769718282928   -1.47671675525132
O           1.12907711434062   -0.22316400069483   -2.86870244662049
H           1.73907276317990    0.42465773445102   -2.47486318651125
H           1.21856996292462   -0.99865101597346   -2.30699038815685
O           1.19136165754750   -1.54752825515377    2.47254957446719
H           1.69101259958196   -0.99530252191347    3.07538513066139
H           1.46510414065842   -1.27123256850053    1.58493873844673
O          -1.13718176022214    0.84016228197254   -1.84682575182853
H          -0.44390508626201    0.48277801347208   -2.43673130966395
H          -0.64079567893689    1.26679560022532   -1.12855835406809
N          -1.12264503809916   -1.08051129998293    0.96241140150588
H          -1.82742179632954   -1.33972867350505    0.23118219297537
H          -1.41041282072678   -0.17435320634608    1.41410859032419
H          -0.95789848059590   -1.79315796050473    1.67045256188568
H          -0.20376202895967   -0.89734662725354    0.48375182639689
