    26
        -50.46829812  Gyration_radius:  2.47236008769 Dipole_moment: 1.562
 S          -0.15302099806160   -0.57967440743839   -2.01689154002660
O           0.53510710445623   -1.85120247272054   -1.97154783909888
O          -1.23061681404053   -0.50429915305874   -1.03712736734107
O           0.72320816348506    0.57582674516920   -1.92000039350786
O          -0.83249109518622   -0.51576733495656   -3.44942986062577
H          -0.76320027823498   -1.42814827568899   -3.70879895889178
O           2.45683105312853   -0.84597466768176   -0.50895977721517
H           1.95662542268608   -1.53037977622125   -0.99634885052789
H           2.17221905201068   -0.04355750862406   -0.97737353904561
O           0.03782143178870    1.61004077891026    1.99374487267140
H           0.22846936262920    2.12178273991922    1.18037503080479
H          -0.89214991821022    1.33049313960651    1.86226611531853
O           0.21744803142119    2.69734329182040   -0.44837820414764
H           0.81877091304485    3.35393717813959   -0.80211230758216
H           0.31854560195170    1.90529010168569   -1.02198599014440
O          -1.11292591225467   -2.00014385771439    1.13144351010855
H          -1.84039631489348   -1.55607902908748    1.57887515174694
H          -1.13434946839593   -1.64174526326352    0.21656837605469
O          -2.33854906666704    0.75109376225406    1.05074767258995
H          -2.84533069916550    1.50870770421145    0.75451825889777
H          -1.96248291646844    0.35376300383045    0.23821805059406
N           1.14516756338529   -0.75029890003074    1.78957750729223
H           1.75399133078417   -0.79016006455798    0.92046501970752
H           0.29862885367155   -1.35730678641186    1.61497175321101
H           1.66000773584206   -1.06563004785662    2.60391180789296
H           0.78267184129543    0.25208908976700    1.92327148126624
