    26
        -50.46891553  Gyration_radius:  2.43216785726 Dipole_moment: 1.409
 S           1.75570603152365   -0.48361466958812    0.30081631330237
O           1.36385456135135   -0.48400824720768   -1.10282292574355
O           1.77898922914265    0.86035377675557    0.84729355961066
O           0.96833636074039   -1.41163801592976    1.08784497446603
O           3.24044575242213   -1.02354103364028    0.34868558887780
H           3.70455421146692   -0.42200097592968   -0.22403267982657
O          -0.39952894324605    0.31800875078436    2.57066622216420
H           0.08268686522470   -0.41307024191548    2.13906127754461
H           0.25388549628705    1.01962586058061    2.63719572630662
O          -0.24584983299493    1.11062876199582   -2.80905646124343
H           0.52894095520371    0.58164385855764   -2.58899015728722
H          -0.26414768685680    1.80052368923289   -2.13322552166552
O           0.14733340389338    2.52742550756093   -0.36157736066643
H           0.46670494501183    3.41119853777700   -0.17387418227874
H           0.78895477522349    1.90596028059058    0.05770971714144
O          -1.97486066688534    1.07167855807031    0.54108401922620
H          -1.39879222299876    1.77634565003993    0.19575925148935
H          -1.55939251140894    0.79897213566832    1.39024335182772
O          -1.10267710545094   -3.01357580138835    0.51714449332451
H          -1.59850828736000   -3.07589911102676    1.33592766125662
H          -0.24936338090165   -2.59789236457332    0.75396332522270
N          -1.27706000813460   -0.86599549984543   -1.08119445963402
H          -1.65778891478997   -0.08322085645543   -0.45207494648377
H          -1.44846330798507   -1.79062804301876   -0.63413525582185
H          -1.66764220764028   -0.77984627451657   -2.01625935443786
H          -0.23631751082899   -0.73743422253308   -1.14615218667835
