    26
        -50.47604032  Gyration_radius:  2.42390149558 Dipole_moment: 3.665
 S          -0.05781360524863   -1.22619897440165   -0.95312061059866
O          -0.34725134705294   -2.08000384632604    0.17771332717217
O          -1.00759618062711   -0.09356598171880   -1.00590121889049
O           1.31286804176325   -0.75461018705539   -0.97164925647723
O          -0.26618916605833   -2.03884540861163   -2.26794391011824
H          -1.22529043246268   -2.21678248692613   -2.26655426940985
O           2.35591738478765    0.07610549224648    1.33884085072851
H           2.15997363817689   -0.33520204953947    0.47124126014729
H           1.73658928546327   -0.35386772855195    1.95393052579826
O           0.12683910437340   -1.04109072749932    2.48918442480702
H          -0.05103551227188   -1.69303438050564    3.16879828206308
H          -0.05453518662732   -1.49658172611563    1.62301513743913
O           0.77551438519183    1.70057865453445   -1.81806334848794
H           1.37686609357530    0.93789802843593   -1.82109292008591
H          -0.08658724523620    1.26308618102910   -1.68714507218339
O          -1.19159404476323    1.09786385864753    1.39108637785393
H          -1.28415207253886    0.66515702362179    0.51781921418118
H          -0.87721185776312    0.39353251743946    1.98454924632483
O          -2.87339687541496   -1.71216202097700   -1.92979966519118
H          -2.40827141155840   -0.99467810763955   -1.45851296757789
H          -3.37740574819881   -1.29839065313196   -2.63442544023239
N           1.06566089016972    2.28047527578448    0.75129755396374
H           1.01850587722801    2.24073266743367   -0.30689631823490
H           1.72878471128349    1.50094940423554    1.05928764971217
H           1.34611264688762    3.19214413719525    1.09235655558499
H           0.10469864686343    1.98649101840697    1.10198459155942
