    26
        -50.46580989  Gyration_radius:  2.59679919423 Dipole_moment: 3.435
 S          -0.07451668625738   -0.07246850387582   -1.42730956090688
O          -0.39055770342650   -1.26476854170674   -2.18159462265341
O          -1.11298012622847    0.22977641545449   -0.43386821664955
O           1.24579796216636   -0.09024838320344   -0.81987305898437
O          -0.06586926822342    1.15620509865681   -2.42276170810668
H          -0.95760294077027    1.12835217867696   -2.82456410967014
O          -2.55185068871491    0.31843534132083   -2.77193638953193
H          -2.16274504677079   -0.54386123169043   -2.96855118326644
H          -2.55459463876930    0.36729083400386   -1.80596809130978
O           0.55971490811684   -2.89988225229004   -0.28774159769621
H           1.49427103421364   -2.72680129300718   -0.42233191201915
H           0.11333443388026   -2.41624661884658   -1.00996455776601
O           1.34967907002542    2.51091731072196   -0.19906815707825
H           0.88620746479719    2.92462622337493   -0.92995697513296
H           1.45075532887242    1.57750438770734   -0.46685764570278
O           0.80672093117397    2.50080081076958    2.45504303966357
H           0.16314843435132    3.18890770184436    2.62928225775319
H           1.10321832587049    2.62755977959661    1.52935196078558
O          -0.12967416100284   -2.58831033975367    2.29733278107261
H          -0.99214364406880   -2.98374523707805    2.43092363725439
H           0.12775448599727   -2.80618557323120    1.37395169103858
N           0.34011391616546   -0.02778263257831    1.69954131149894
H           0.16014645510515   -0.91635572283436    2.21321837990751
H           0.47778364485916    0.82958629773417    2.27270439202278
H           1.14922612532597   -0.15345857040658    1.07508979525426
H          -0.43533760668860    0.13015250064080    0.99590855023167
