    26
        -50.47468850  Gyration_radius:  2.41754431274 Dipole_moment: 2.069
 S           0.29672543938423   -0.09707592602453    1.69557366733653
O           1.37852992192396    0.09771011682884    0.71836277951227
O          -0.92724853354683    0.55537829429257    1.22234085478896
O           0.08962381086904   -1.48141352162014    2.01228632446195
O           0.73512851207758    0.65448762988699    2.99497145985307
H           0.95259526961418    1.54321534133584    2.66913208715524
O           1.26268919221644   -1.35999498791176   -1.43872628901806
H           2.16259094244295   -1.55348757495496   -1.70532369879541
H           1.33069967918563   -0.81086187008613   -0.61869483537195
O           1.67447825209902    2.58789739545225    1.34527902026433
H           2.58992175851046    2.82380640190144    1.50766358443858
H           1.68054701830873    1.69153282138367    0.93830228172508
O          -0.60088469829338   -2.92886341312460   -0.12084206138133
H          -0.34634356821611   -2.59548002809804    0.76476351487765
H           0.12634848740923   -2.65840787576408   -0.70558869580185
O          -0.71101985999567    0.24431123470136   -2.52512712328235
H           0.07595784650298   -0.30133334469873   -2.35514894984124
H          -0.54960285035039    1.09407916870475   -2.06791303213164
O          -0.37938205164254    2.26824369807111   -0.76156393236052
H           0.31798750674242    2.83870786040638   -0.42830640480363
H          -0.63885594410131    1.71745334073852    0.00234514124274
N          -2.14329170217739   -0.87134908418691   -0.63533141444553
H          -1.82199810420947   -0.28159694289374    0.17390212476018
H          -1.71208161875469   -0.43053574299957   -1.51105482139231
H          -1.68903377849764   -1.82369278601837   -0.48784892266166
H          -3.15408090753598   -0.92273021530997   -0.68345264912393
