    26
        -50.46658204  Gyration_radius:  2.49195859917 Dipole_moment: 2.521
 S           0.21402578072778    1.73304324191697    1.26626026582458
O           1.61905994390145    1.42863079331759    1.08151465545745
O          -0.37019182867611    2.34907833930369    0.08051878875848
O          -0.56622871298774    0.60549946258493    1.73757008715238
O           0.14750126412903    2.82200307809522    2.41426770665491
H           0.79424902348644    3.44362790411385    2.09936961318838
O           0.32683095311024   -2.23757929305775   -0.21640792077617
H           0.95358001733554   -1.54566209358142   -0.49151476668369
H           0.49358306475765   -2.31904565339683    0.74067253580031
O          -2.03405966019115   -1.05205457829829    0.21070930832716
H          -1.69503133934080   -0.48731134823232    0.93069821063197
H          -1.27422752535611   -1.64644131114481    0.00395176663269
O           0.65260664845303   -1.68041454899889    2.42169387957562
H           0.31735750634958   -0.78144448518420    2.22844427598314
H           0.14355995869845   -1.99618383191661    3.16973201091628
O           0.27493767061675   -0.57772889215623   -2.91997708048171
H           0.10862622358575   -1.49892817386960   -2.69772364039274
H           1.02369325094605   -0.31115868754865   -2.35443590221510
O           2.03421764538059   -0.16647833009799   -0.90232905418642
H           1.86199274544452    0.47119552467708   -0.15960421296159
H           2.97167491367121   -0.36263327584929   -0.85529594105609
N          -1.61779484275825    0.77475983196065   -1.58425288122325
H          -2.38521479555090    1.21293163283869   -2.08005842419741
H          -1.11819881825674    1.47883864742626   -0.96554225101750
H          -1.95120391692630   -0.00005853457129   -0.91420020894659
H          -0.92534513056112    0.34351457166752   -2.24406083077124
