    26
        -50.46909144  Gyration_radius:  2.4055191377 Dipole_moment: 3.683
 S           0.35213492216797    1.30126998149871   -0.26385716640263
O           1.38009832740391    0.26313050422689   -0.12295827376217
O          -0.96049908858068    0.65316424979424   -0.45231301863129
O           0.33357074806507    2.20382564236771    0.85908607171026
O           0.66037922568356    2.11602513181124   -1.53675090734460
H           0.82117445727085    1.46484328956200   -2.27955854475875
O           0.88035373814846    0.40154169619931   -3.46572662450790
H           0.48359414063293    0.78628608046942   -4.24994025996851
H           0.24975336157581   -0.29868840923362   -3.14810062890581
O           0.75267276167793   -2.26793753718886   -0.30441072875703
H           1.55485867779224   -2.79047598183203   -0.34108730126981
H           1.04969097738830   -1.32137563462937   -0.29093801718156
O          -1.57130857154306    1.35438236366721    2.52968390778547
H          -2.18853652413801    2.06273371758155    2.71570562782381
H          -0.91926394684491    1.73603165182194    1.90859111595128
O          -0.85065063790145   -1.21485707480558   -2.33274925939815
H          -1.06780129081878   -0.50455979347386   -1.69346175648053
H          -0.34901545489422   -1.86078257869493   -1.81416742432917
O           1.24315484465631    0.06159196728917    2.51382340197504
H           1.00719825789996    0.94572398361280    2.81135899219612
H           1.53498350711471    0.17849755122870    1.58524283841744
N          -0.90389624690832   -1.08403477811213    1.49021205663857
H          -0.52189398045746   -1.90797011519930    1.00332540453807
H          -1.73963646073288   -1.26724768472311    2.03533473274407
H          -0.13490888561430   -0.66658765903077    2.09775432596566
H          -1.09620685903246   -0.34453057422139    0.74590145594820
