    26
        -50.46817483  Gyration_radius:  2.47677765269 Dipole_moment: 3.129
 S          -1.03167045888192   -0.32425157739131   -1.50251235319892
O          -0.31658462257216   -1.53858944743156   -1.12245492978261
O          -2.36467314541725   -0.28756377575929   -0.94156695564215
O          -0.25362107848186    0.86753508626740   -1.22330741235507
O          -1.19808950735700   -0.37362902490121   -3.07516430569504
H          -1.88084377002804   -1.02470172739413   -3.20235203697583
O           2.18893791015302   -1.52786962560051   -0.21114625592249
H           2.41925805870776   -2.45560939954802   -0.14725541629881
H           1.27846953497190   -1.50630538865017   -0.57356322579977
O           2.54624219625299    0.62965743905497    1.49958055216422
H           2.58345157874742   -0.29435462352377    1.20388500937629
H           2.69581403428624    1.12468251019619    0.66543964154618
O           2.47365139217598    1.22321446105563   -1.11801977891452
H           1.51874947778928    1.25646869369202   -1.29034655027137
H           2.71943650969674    0.30129366014691   -1.25287530680016
O          -1.26250996995027   -1.55673264820599    1.35492365786739
H          -2.18953544576550   -1.34002485455606    1.21949000844009
H          -0.91325372993416   -1.73876149244380    0.45975184644909
O          -2.65357406383400    1.51355232270657    1.03721219776739
H          -2.58706423679993    0.88640751712256    0.29102713125194
H          -3.43755727755629    2.03628693319593    0.86578100580343
N          -0.06182279734646    0.84094040173999    1.44077300350345
H          -0.60270604406762    1.55017144353203    1.93028642347560
H          -0.49189703345293   -0.10025001219347    1.62032124963945
H          -0.16098001003598    1.00489346795678    0.41253739512189
H           0.98237250870564    0.83353966093396    1.65955543525003
