    26
        -50.46821247  Gyration_radius:  2.44314541865 Dipole_moment: 3.032
 S          -0.33450911207555    0.29723360414261   -1.85221793559799
O          -1.13438329505089    0.83552170910325   -0.76919051429257
O           0.81626893826757    1.12646451652337   -2.15217042732396
O           0.00067440583810   -1.10183103230937   -1.63384663845939
O          -1.23673514243586    0.31650388169269   -3.15411459978658
H          -1.18641068156278    1.23725923149672   -3.38353813401395
O           2.60091985908694    1.30645434358492   -0.26375072746167
H           1.96313289780388    1.27830714049327   -1.02151777286385
H           3.45674671832670    1.51062265624038   -0.64346073248565
O           1.68953558909817   -1.14695009678733    0.43228772864746
H           2.14471777364664   -0.28760499412207    0.35544283733745
H           1.18339590592911   -1.23485492430656   -0.40090042012391
O           0.31053636072341    2.47822034482965    0.86465332160114
H          -0.15635593862431    2.06169833563145    0.11942877679909
H           1.24122725494645    2.26266640191886    0.72782948577959
O          -1.71145691046712   -2.45255122798194   -0.18759810323628
H          -1.63857807635576   -3.34755232196469   -0.52350520346936
H          -1.16735180900333   -1.89554790563296   -0.79474413993004
O          -1.63948967772783    0.97197674906215    1.92949422515768
H          -0.93883085187613    1.65335077499432    1.89079511541477
H          -1.91228914272728    0.90085297576390    1.00114053873220
N          -0.46605829280388   -1.36634471249163    1.92298571091577
H           0.48245577263177   -1.24126544901665    1.45747401296531
H          -1.04652339653286   -1.90212300925676    1.23460891286948
H          -0.38952909664565   -1.85439798089654    2.80780212723834
H          -0.93111006242085   -0.40610899071130    2.03661256558816
