    26
        -50.46793548  Gyration_radius:  2.37797565068 Dipole_moment: 0.783
 S          -0.00016789070076    1.07057564988603   -1.34360810050662
O          -1.17855416027476    0.22324353070971   -1.21232389479146
O          -0.13773407206817    2.31483346343726   -0.62462031432224
O           1.21743131210339    0.34071071510112   -1.03391816417228
O           0.11738446731125    1.44409928927119   -2.87881745313721
H          -0.41340960948796    2.22894917535338   -2.97069655429487
O           1.78308345227102    1.92907757210338    1.20508042091477
H           2.40199744622702    1.48043796304411    0.62313195062118
H           1.06762361547389    2.22596926660467    0.61135258499612
O           0.51399890450220    0.05223009069644    2.63657747757023
H           1.08436883751346    0.78289229597325    2.30799866097368
H          -0.38944743407514    0.32906194002670    2.38523508538010
O          -1.82377890352292   -1.97462544336852    0.20204498251397
H          -2.30262827272860   -1.55981233782838    0.92519536496286
H          -1.73960855291127   -1.28253927659051   -0.47932464176009
O          -1.70294539419777    0.91850860129735    1.32363149128008
H          -1.56884808298199    0.71146550491537    0.37985065327778
H          -1.62936376971498    1.87460927641138    1.37319732993962
O           0.47604682222419   -1.97381984495842   -2.30043039755455
H          -0.44276058603868   -1.84147577996631   -2.54026020360256
H           0.82796170494665   -1.09605121376626   -2.10494463529447
N           0.78608310531524   -1.66772756415736    0.70888445880810
H           1.04833498217495   -1.00016542187134   -0.05020816538386
H          -0.19207650894844   -1.99871883901490    0.50430412255535
H           1.43686914203454   -2.44492914885789    0.73652470380312
H           0.76013943555331   -1.08679945445393    1.61614324722603
