    26
        -50.46761373  Gyration_radius:  2.51516538819 Dipole_moment: 3.842
 S           1.31849499654563    1.02447038843156   -0.81646165192280
O           0.85255018857603    1.96057106429091   -1.80774109039812
O           0.94514609317924    1.35480241326076    0.54860188160586
O           0.94947003824673   -0.35916062292983   -1.12114432056627
O           2.90096236699282    1.08613826253824   -0.88616365749065
H           3.01991121268255    1.75976195762096   -1.54666689088888
O          -1.24593358893669   -0.86056539806721   -2.56225544407490
H          -1.12584826878919   -0.83787431961950   -3.51253575708815
H          -0.36383732924266   -0.70003686149609   -2.17002200823289
O          -1.70179743249590    1.22519262202673    1.06443963758525
H          -1.97548603568699    1.52226910493155    0.16520061886039
H          -0.76838217665205    1.49507302822453    1.11626892211109
O           1.77246962181493   -0.31166860118257    2.41615089328100
H           1.51764033981039    0.28461685594933    1.67678538094852
H           1.82204573272342    0.24798448977099    3.19319227722704
O          -1.81830839135774    1.66266561861283   -1.54293259508704
H          -1.87994525172580    0.79142317038435   -1.96702068133486
H          -0.90116687293823    1.95306196324498   -1.69488747090772
O           0.20118454250242   -2.45659499082468    2.46103886518016
H           0.79975703185757   -1.67660620986211    2.54776425747055
H           0.77184344741078   -3.20399843378291    2.27564269214528
N          -1.03589111428200   -1.21749479330794    0.43549563424257
H          -1.43802029217017   -0.28477568843976    0.79236127002230
H          -0.71972651544030   -1.81306842128130    1.23622063806577
H          -1.70372987613550   -1.68882370735487   -0.16779736939789
H          -0.19340248647844   -0.95736291112826   -0.13353403135757
