    26
        -50.46303840  Gyration_radius:  2.72404621982 Dipole_moment: 3.381
 S          -1.66511672055552    0.87336329699469   -1.67860167917799
O          -0.89300179458854    2.08697793082132   -1.87005934656777
O          -0.89578398726155   -0.32523874227515   -2.02294451522636
O          -2.26663139378030    0.75392437241434   -0.36819708431909
O          -2.86661679900771    0.94765366555265   -2.71518488513174
H          -2.47390912554247    1.28418739321267   -3.51576046943199
O          -0.74748435405520    2.52262231921743    0.91405546261232
H          -1.44751216221762    1.92486909771507    0.58354607534984
H          -0.53291500484004    3.06329157453002    0.14704259492948
O           2.32938136089575   -1.38448289605570    2.35771056957978
H           2.40344816252648   -1.15843004717965    3.28594285788232
H           2.05048057591672   -0.57153037237702    1.89880521490780
O           1.15458123460228    0.69539833868725    1.00682653435869
H           0.54032183169752    1.45536090899376    1.16022867409435
H           1.48568749442798    0.83631800524929    0.08641843538900
O           0.72502558328393   -3.32252682906720    1.38666760477498
H           1.35981125752871   -2.71332160365767    1.82256303874829
H           1.25014758641724   -3.92119438012564    0.85380117839572
O           1.51414569780705    1.01462887440769   -1.59521834047988
H           0.72577491018689    1.57657702001180   -1.74573193843694
H           1.28541489883285    0.18744669362309   -2.03001179032154
N          -0.61470353818871   -1.19642265939333    0.41673545915812
H          -0.27065290802139   -2.14153680704638    0.69331412063419
H          -0.70747272718732   -1.04851238743523   -0.62672158832399
H          -1.52850873552666   -0.97263217932197    0.80775148983706
H           0.08608867663971   -0.46679056749831    0.74702234677702
