    26
        -50.46906523  Gyration_radius:  2.5548433611 Dipole_moment: 1.388
 S          -1.07285650226486   -0.67557093778306   -0.98190630705830
O           0.21669474907665   -0.86131754101964   -1.64040342091124
O          -1.12551701039157   -1.38150051911570    0.29221394374638
O          -1.39837668564204    0.73356646260906   -0.81885612039685
O          -2.17239173826252   -1.27767715785651   -1.91073324852264
H          -1.81019886550294   -2.16300059525451   -2.10793615159311
O           2.14993258835729    0.48555410685900   -0.36145628741393
H           1.77340655005047    1.37545125070902   -0.47351919935881
H           1.53849332429342   -0.09861695752401   -0.85146632526047
O           2.24331008107000   -0.20301135044031    2.15334970372004
H           2.29229941238181    0.10944756329349    1.20697007080811
H           2.62688453573534   -1.08133430681803    2.15217552592793
O           0.48546506433210    2.59981755105076   -0.89471785084689
H           0.58132015950663    2.98833494855994   -1.76524324038974
H          -0.21000681784256    1.90997135159262   -0.97828750885525
O          -0.49015074493155   -3.25904499264021   -2.39672021281952
H           0.02559677606204   -2.48205997614057   -2.09598266294234
H          -0.24146660929682   -3.41292412597831   -3.31115265898457
O          -1.27917386955579    2.26622258679819    1.38667655322160
H          -1.59510662674143    1.77093631749509    0.60565483403399
H          -0.57719090974031    2.82841718938004    1.03895096238355
N          -0.39291381871859   -0.03450183335018    2.38026054903388
H          -0.72359068622382   -0.63918566474636    1.56174061179629
H          -0.70308940346770    0.94833660450505    2.15441341353392
H          -0.80380316013757   -0.35606140919986    3.24955601089236
H           0.66243019783933   -0.09024855499156    2.40641901624480
