    26
        -50.47192572  Gyration_radius:  2.4359811641 Dipole_moment: 1.701
 S           0.88596763563020   -1.05413585674087   -1.50876033733526
O           1.12663605252801    0.26980258884290   -2.05251208527464
O           1.64599928044795   -1.27422483814902   -0.27399780671623
O          -0.50978738062900   -1.38296739109902   -1.35103123876924
O           1.47211275810038   -2.07474825915252   -2.56800315225915
H           2.30228015116965   -1.67169410658157   -2.80006944741062
O           2.23631101640513    1.29935991636948    0.22965948466769
H           2.21048472178147    0.33139906770855    0.12356735714381
H           1.97477575471895    1.62443777944529   -0.63826867111445
O           0.36239404317095    1.45693851153251    2.13350912102764
H           1.11645386994844    1.58202319286118    1.51483086155114
H          -0.44024337932307    1.64352192078040    1.61435942444064
O          -1.35265131780014    1.14228307366968   -2.01912101617059
H          -0.39010237587855    0.97800292532504   -2.10555702642690
H          -1.73653101950590    0.26919184672862   -2.15200228330482
O          -2.10253220841328   -1.18684620384684    0.79374884047131
H          -1.67670064064983   -1.39829588106033   -0.06007397254288
H          -2.23207131438807   -0.22178090545038    0.77549203097084
O          -1.87284290198536    1.55681695148503    0.51907616816128
H          -1.64431850801299    1.47074760759323   -0.44651937925595
H          -2.53302415466983    2.24882832819684    0.57587245868858
N           0.24024241915825   -1.14585015307842    1.96844924369690
H           0.84662671208744   -1.32052589922828    1.12791762807507
H          -0.76459550668873   -1.29906714854990    1.65176364927900
H           0.50196412363947   -1.74186652007268    2.74470345869189
H           0.33315218918570   -0.10135053761280    2.20296667977285
