    26
        -50.46910232  Gyration_radius:  2.46490155317 Dipole_moment: 4.530
 S           0.68516611504182   -1.01283739904001    0.20258259973077
O          -0.22355275769889   -0.72242046567574   -0.90810424008259
O           2.03071936486919   -0.55284177968141   -0.11428651565388
O           0.19533091630698   -0.45057540218514    1.45164821288174
O           0.71848933908933   -2.55783019455469    0.39089721258664
H           1.07650218946879   -2.87281584200182   -0.46144038782877
O          -2.50848659015717    0.13211531992505    1.42539579445647
H          -1.61650973397454   -0.16818773139310    1.66409156910610
H          -2.86819045931669   -0.59700362547235    0.89142006090415
O           2.70940594904076    1.98691654103740    0.03926073190472
H           2.94519513478310    2.23953727608828   -0.85501949733528
H           2.57650161893069    1.01010902815167    0.02041201448522
O          -1.49052090469498    1.63391730898784   -0.50035255763190
H          -1.03220199794858    0.85464181263143   -0.86950957409117
H          -2.09895998557400    1.23326655603561    0.17008309294665
O          -2.68408180320908   -1.74513349523323   -0.55876234261571
H          -3.14958471536522   -1.61528180563800   -1.38671394554564
H          -1.76206324810208   -1.46111266144447   -0.71205521732573
O           1.69694558938362   -2.36566262277834   -2.05374746119551
H           0.90333609004787   -1.91741652914323   -2.36525921193155
H           2.19302674177499   -1.68633344876508   -1.56970939855121
N           0.34626357625004    2.16580466090778    1.24169210452991
H           0.35465798325944    1.16133084408390    1.55566420040151
H          -0.42888849183557    2.16750413718428    0.48769645121742
H           0.14981135919321    2.79888462641312    2.00912262625418
H           1.28168869044026    2.34142492156024    0.80499367838421
