    26
        -50.47303377  Gyration_radius:  2.41235852319 Dipole_moment: 4.072
 S           1.54543629948496    0.00321686287387    0.46187865692019
O           1.12484623513855   -1.05665709557383   -0.46552636685938
O           0.85506050068083    1.25026122185539    0.11879487179421
O           1.35424800165148   -0.36151542530275    1.83962718085240
O           3.06703500613865    0.24687901200306    0.22920543749303
H           3.12274625447836    0.43686406306307   -0.72515927736905
O           2.34681477756833    0.36210440535641   -2.35227582630198
H           1.66970873877070    0.99076794576951   -2.62474662554653
H           1.87119557221103   -0.36756042851157   -1.92017053105890
O          -0.90572673651074    1.43215534126455    2.10761513842326
H          -0.26329677961173    1.51225791938659    1.37667147496815
H          -0.41777214754152    0.97324889399287    2.79718219886441
O          -0.38429439500924    1.65300789667930   -2.11305237070867
H           0.13162442266750    1.57533370622252   -1.26883710175925
H          -0.78084473594026    2.52555735935156   -2.09565303273540
O          -0.64263571323217   -2.12396208549922    1.95269136289858
H          -0.31184944848660   -2.92499438238467    2.36023530435739
H           0.11537611144887   -1.50440791744386    1.92307319698055
O          -2.54427668013934   -0.41390286160811    1.11572741765775
H          -2.10373556078359    0.37689801231798    1.50991090668851
H          -2.10355062633294   -1.16495776244195    1.55064938983340
N          -1.36978771781742   -0.69292021760721   -1.17822184541788
H          -1.25097813495763    0.20609389735810   -1.68605789458317
H          -1.78347613316151   -1.40468883411035   -1.77038447814565
H          -0.39454289290466   -0.97703156449634   -0.87618623314631
H          -1.94732421781610   -0.55204797249388   -0.26699096413574
