    26
        -50.46344168  Gyration_radius:  2.67497840627 Dipole_moment: 1.682
 S          -0.16805594853366    1.23165457331695   -1.83180577577048
O           0.98057592943238    1.70623973580374   -1.07435447258076
O           0.02685712070324   -0.11197323654092   -2.34204851838671
O          -1.41673287515012    1.38862543294773   -1.10313593496105
O          -0.29397279350606    2.18467906414068   -3.09535686716610
H           0.54295427162562    2.05992503430873   -3.53173648958738
O          -2.90220162830041   -0.81919360583715   -0.74246950149408
H          -2.47354807236296    0.05160405771705   -0.86921157192772
H          -3.25138934247262   -1.06720043657862   -1.60000252744322
O           1.93944983608500   -2.71664344870624    0.62031262734078
H           1.03418068347232   -2.50096764021034    0.33277801023878
H           2.48308377468272   -2.66950470979564   -0.16803399822085
O          -1.47612854819669    2.19322325326245    1.44985740596207
H          -1.59231896865441    1.95086139376855    0.50718851334973
H          -1.38303960906541    3.14664324261441    1.46799288570712
O           2.45873351799943   -0.90739505712471    2.54970176628297
H           2.38714827708609   -1.62543426643805    1.88261267330621
H           2.36588179182466   -1.32660640577548    3.40607163805935
O          -0.40317850286201   -1.61402595811901   -0.25741603827007
H          -1.38246407222062   -1.58494498351397   -0.25584063853387
H          -0.16753786519935   -1.16976733736487   -1.10720450590241
N           0.54839063719384    0.44223090481457    1.18199544456852
H           1.30477806280743    0.13957780798686    1.82690468285659
H          -0.17221605592222    1.04244904347079    1.62440565581500
H           0.91659555882668    0.98645920075980    0.35992897374348
H           0.09415482071094   -0.41051562890648    0.76886657301814
