    26
        -50.46891497  Gyration_radius:  2.43226118412 Dipole_moment: 1.434
 S          -1.32586083560707    0.04221734179410   -1.28298582412221
O          -1.10521253790829    1.46724853347370   -1.12040598873830
O          -0.10888768487131   -0.64394829960033   -1.69707537168819
O          -1.93779916671808   -0.58199115008954   -0.12694854396110
O          -2.35966941546750   -0.12721267685696   -2.46668109092748
H          -1.90750343247460    0.27069823301535   -3.20320813219256
O          -1.51769619962400    1.32399955068275    1.67633234023651
H          -1.56318921428280    2.09463079482471    1.10386601840651
H          -1.78913976587177    0.58492946715226    1.09897020411552
O           1.10038455054803    0.79753170589416    1.87042276848406
H           0.14700515461866    1.00793985188789    1.99208205608678
H           1.39377501493540    1.37765611042668    1.14592207711436
O           1.37441611616932    2.09158853958628   -0.51483565040050
H           1.49536698702256    3.01031478933558   -0.75885687869917
H           0.45618969107491    1.85152921913691   -0.78463831381733
O          -1.23646161948878   -2.63996178029953    1.43963397217043
H          -1.61380013442104   -2.43619361323538    2.29768305573914
H          -1.64102410319067   -2.00615395932199    0.81379846029997
O           2.68732852621086   -0.29432665762407   -1.37177996908925
H           1.89215410579925   -0.51633563847504   -1.86864146892508
H           2.52649509491747    0.60250511937734   -1.05100193904349
N           1.02070805939514   -1.47845611858715    0.57129652252622
H           1.12121069568789   -0.58968377164024    1.16569546397422
H           0.34808941357129   -2.13076376253241    1.02536614360667
H           0.60635672240695   -1.19325594457038   -0.35124241825541
H           1.93676399755217   -1.88450588372656    0.39723250711198
