    26
        -50.46798936  Gyration_radius:  2.59109390728 Dipole_moment: 3.235
 S          -1.54144974100946   -0.61388681238608   -1.46007430880219
O          -1.76403600624444   -0.49901358463822   -0.01450359462430
O          -1.71011552053689    0.66140900006513   -2.11932931002695
O          -0.29517502607366   -1.28548395774463   -1.76705777124343
O          -2.68788483059430   -1.56965918411249   -1.99880313512191
H          -3.47473103864997   -1.03676605162318   -1.93586171199696
O           1.35727048712973    0.84560200904945    2.83792162071512
H           2.18339732230680    1.23562030323164    3.12616893859631
H           1.58250908967376   -0.01700019867703    2.43453133562443
O           1.98859237911310   -1.43792213651430    1.47141389668535
H           1.14525032397821   -1.88957889489862    1.18326048250369
H           2.54581126193188   -2.13164760588096    1.82642244142696
O           1.83701025152420    0.06301925164028   -0.88178581037305
H           1.17351549472165   -0.45046763317288   -1.38539485428447
H           2.14145838170948   -0.52434912021321   -0.17098982669167
O          -0.18774639855209   -2.56395710756319    0.55255633621354
H          -0.92502990193963   -1.96105965029516    0.74258497815792
H          -0.07451223179051   -2.43837900209165   -0.40672628498146
O          -1.16928143928701    3.07763800203511   -1.16299196174194
H          -1.47670311372882    2.23017425669488   -1.55560517142421
H          -0.74450888560786    3.55272056272517   -1.87901395181111
N           0.02000106639669    1.37608868297366    0.53302041148194
H          -0.75298132269506    0.67020911212753    0.46509427062365
H           0.81255861094140    0.99916115155517   -0.06123204793840
H          -0.33759134831714    2.25724302535950    0.11753764604910
H           0.35437215561173    1.45028555235549    1.50885736297750
