    26
        -50.47032756  Gyration_radius:  2.4117230986 Dipole_moment: 6.158
 S           0.11826370793766   -1.69330926952716   -0.39390145368115
O          -0.01402884138247   -0.53045531669960   -1.26148650298642
O           1.41388862721568   -2.30442988407818   -0.40362530851318
O          -0.40751849662585   -1.41284617407623    0.93826845377043
O          -0.88824695046796   -2.76377071535463   -1.02570728347467
H          -0.42011649251517   -3.57440317870341   -0.85984527398872
O           1.48559857199855    1.62687314497703   -1.28377922686696
H           0.93177190545614    0.81835172658616   -1.34268090823974
H           1.55349022584851    1.97993327410260   -2.17184212522325
O           1.14744119162396    0.42002822310810    2.32100919796041
H           1.97991798624421    0.27968541524592    1.82297226444934
H           0.59851610455287   -0.33768304776527    2.07197611618506
O           2.93079739998187   -0.16988101342168    0.40584314739625
H           2.70192700833919    0.51003908222332   -0.24134391006000
H           2.53639120524479   -1.00044094269375    0.09330136010099
O           0.02239913399844    2.36102052286801    0.92839207434608
H           0.56663965784055    2.31145648557041    0.12314527578132
H           0.50084512797810    1.78771929567151    1.58220081730340
O          -2.59224597651710   -0.24750628743329   -1.67396595278653
H          -2.94653758339370   -1.13498786284585   -1.75456414562742
H          -1.61760556235217   -0.35420959729439   -1.70449078488520
N          -1.95293168282545    0.69764975821268    0.77174749185784
H          -2.63610330872634    0.84706436581068    1.50642190741606
H          -2.40384239360355    0.57590596615217   -0.15669325131929
H          -1.21014511758025    1.49488193327749    0.76924575115008
H          -1.39856544826981   -0.18668588390838    0.93940225993688
