    26
        -50.46775151  Gyration_radius:  2.50253271565 Dipole_moment: 2.325
 S          -1.31889887442373    0.99081638273515   -0.23506802420375
O          -0.11932069769726    0.91412228262487   -1.04110357736822
O          -2.53407045104405    0.67283146967296   -0.94591525310699
O          -1.18997899975741    0.22212283679270    1.00259910484476
O          -1.44905667290978    2.51466548458203    0.20893942911868
H          -2.35678782536805    2.56288535863652    0.49030846957901
O           2.85883617436853   -0.83885111779261    1.05239766101861
H           2.23997820845084   -0.24116457212467    1.54602005915006
H           3.68615923458904   -0.35951288506758    0.98973080690384
O           1.41316048811523    2.75571359845397    0.14763786008322
H           0.81068460878382    3.49181013477269    0.27064939189053
H           0.93332657163940    2.11974166460552   -0.41551686605335
O          -2.52628817084523   -1.82807214949834   -1.76275406011776
H          -2.65914192445988   -0.89462585449938   -1.47483578821820
H          -2.28755407217239   -1.78166795234023   -2.69064059669365
O           1.18513682443156    0.90406676594853    2.12388667679581
H           1.40798191430887    1.66996542302935    1.55971177090163
H           0.28742877720454    0.64544467427758    1.85520038454140
O           1.48357733853151   -1.27897066815876   -1.16266434018732
H           1.06365223919471   -0.41293547973456   -1.30925022932699
H           2.11086937444792   -1.14597741523736   -0.40909566858157
N          -0.61020575357058   -2.17115965417430    0.05726635086183
H          -0.84551638475604   -1.30667436183444    0.60494331558244
H           0.31892501448273   -1.94715795115693   -0.46349085552207
H          -0.53095392083172   -2.98477897148901    0.65744946085878
H          -1.37194300091000   -2.27263703275373   -0.65640546267149
