    26
        -50.47113681  Gyration_radius:  2.45481655171 Dipole_moment: 1.301
 S           0.15564586789418   -1.38058967606882   -1.54793096167475
O          -0.77808195385583   -0.58521303577551   -2.31915976110548
O           1.27251801361857   -0.57519588650922   -1.06164258434840
O          -0.45755509614372   -2.14300063036607   -0.47681646673204
O           0.76138634956736   -2.44841020664811   -2.54807044017614
H           0.85040367461367   -1.96476048555617   -3.36334451801562
O           1.44415583886400    2.56159697544152    1.24843182565868
H           0.67581098090631    2.70062441189544    1.80680196677729
H           1.11110731223445    2.52825962576136    0.34010644687858
O           2.41157080836996    0.02046417429575    1.33431805122122
H           2.27062974278563    0.98863460428183    1.37207343608045
H           2.30647910319445   -0.21874973544119    0.39740121929646
O           0.08171806954618    1.75223300543974   -1.02708657645617
H          -0.49231652246554    1.72227741970420   -1.79727619171498
H           0.59418956543180    0.91222110814690   -1.07561314508242
O          -2.78949286245377   -0.57742902142790   -0.56790073281453
H          -2.16990976058755   -0.50805988989743   -1.32096995937408
H          -2.68349364031292   -1.48278038905832   -0.26448953147788
O          -1.50982090795003    1.10391888908058    1.07259932709231
H          -0.95747521266106    1.49244062562976    0.36303888726773
H          -2.18361813697108    0.58595996617531    0.57939988904448
N           0.01348583563343   -0.91054505259811    1.80338446903010
H           1.03131497806584   -0.57878554262035    1.76322905307532
H          -0.62305096552326   -0.06505744347261    1.66422562367474
H          -0.14254374522610   -1.52465087452752    0.96175187178172
H          -0.19305733656179   -1.40540292586507    2.66353881209092
