    26
        -50.46158111  Gyration_radius:  2.50135625182 Dipole_moment: 4.869
 S           0.32926641600323   -1.62118109069650   -1.29966840319240
O          -0.95966958748389   -1.00049430738426   -1.56736171382991
O           1.43426005434620   -0.72325635889029   -1.57641273277522
O           0.38746816444139   -2.21724734216385    0.02132489893685
O           0.45300686154306   -2.82273974779998   -2.32347468722010
H           0.35437309418483   -2.37340965374875   -3.15623290292730
O           1.86068855402520    0.74606342899189    0.68819789496412
H           1.85793264437017    0.10558687522454   -0.04111915602171
H           1.19687191991169    1.42648041594961    0.43617972688452
O           0.88356024849288    0.40544284583896    3.06539627801531
H           1.41584433291639    0.45876145269651    2.22220265146665
H           0.66733560623106    1.31511878564343    3.28063320378697
O           0.69694583497239    1.64258414865537   -2.54830345857588
H           0.91824148578641    0.73675913888564   -2.24595995156935
H           1.53779345194548    2.06831538789351   -2.72743590728127
O          -2.27434434240152    0.42075669983247    0.11289877288187
H          -3.14785027255172    0.57418373579320   -0.24996406406830
H          -1.77829416534772   -0.09857302782869   -0.58221186040669
O          -0.19114232284084    2.31554075061643   -0.07190159670256
H           0.02157362671870    2.23544913885888   -1.02330624829318
H          -0.99281280584435    1.78872742979459    0.05314864563320
N          -0.95610035183889   -1.08135856984778    1.92761147224288
H          -1.62235997367793   -0.47090502341254    1.41652091093070
H          -0.39366780717347   -1.60106528258160    1.18072565325048
H          -0.26263222272941   -0.48686995459446    2.48081077261884
H          -1.43628845399367   -1.74266990573747    2.52770180125023
