    26
        -50.47192573  Gyration_radius:  2.43598115607 Dipole_moment: 1.696
 S           0.12264189530156   -0.23269601666390   -2.02532700295782
O          -1.21965795334970   -0.76160228927877   -1.86750034557363
O           0.26712897456933    1.14348128718459   -1.61749117170928
O           1.12022830667652   -1.10167248250405   -1.39253241176181
O           0.42969973481505   -0.27686399665688   -3.57804137205676
H           0.09482717621322   -1.13209825918897   -3.82690773973591
O          -0.57893959194781   -2.52837351633287    0.12519622873169
H          -1.37707552435198   -2.22543381482246   -0.32039831363093
H           0.13682029452614   -2.18983320301478   -0.44223527037353
O          -1.24252884999218    1.18223095819198    1.80397061762556
H          -1.68997960748329    1.17078460158817    0.91423170321534
H          -1.86816770813141    1.57906912264963    2.41147550627850
O          -2.27974800352500    1.28525904642942   -0.60421106265718
H          -2.05074341670659    0.45110173506184   -1.06541966892199
H          -1.70939493396065    1.93426108775225   -1.02943429339746
O           1.09324923431723    2.18267152095235    0.70896900126900
H           0.28462563923478    2.01329793451215    1.22463434135037
H           0.84064373274567    2.00439549455522   -0.21810917553991
O           0.09876820097591   -1.17116738707713    2.32974645039946
H          -0.46992562847543   -0.38308865087664    2.26593089126907
H          -0.24151037184049   -1.80170189097078    1.65620426216422
N           2.08525212004832   -0.23455654275811    0.91784292232279
H           1.83756718048862   -0.59524392287806   -0.03779964693328
H           3.04917139952864   -0.43939383180563    1.15287976646537
H           1.87615112686863    0.80927443149775    0.90934461959449
H           1.39089658345541   -0.68210140554835    1.60498115456238
