    26
        -50.46999610  Gyration_radius:  2.51769531596 Dipole_moment: 1.014
 S           0.60706616730950    0.10246453978358   -1.78011222708009
O           0.12173225985814   -1.26057138283125   -1.69664471563532
O          -0.43584638991034    1.10029043156977   -1.66337238244593
O           1.69115095779117    0.33724382570131   -0.82870124981374
O           1.22242989415852    0.27792387507031   -3.22531768995277
H           1.80845811384301   -0.46822034685814   -3.30447811076447
O           1.98774005567646   -1.96787743002168    0.52496088330661
H           2.02278866040830   -1.15944840418171   -0.02016967982273
H           1.24838195898735   -2.47291400497974    0.17710846623940
O           1.82871074987980   -0.82581695522492    2.97952756382093
H           2.71975064770944   -0.64995240565304    3.28341280359622
H           1.91964018891956   -1.38503323617876    2.17759778892391
O          -2.95172655204358    0.62034202093702   -0.94489408335639
H          -3.51331654782613    0.40585485815711   -1.69067823123746
H          -2.06174658594756    0.80619275096715   -1.31386012040398
O          -1.50266418157314   -1.26847964137106    0.39499318172154
H          -2.24714390697837   -0.72617379523183    0.07941022395739
H          -0.96360335179537   -1.43953868698075   -0.40453294480620
O          -1.26955282362437    2.62772265210405    0.49098369044598
H          -2.19069884138107    2.35730477585648    0.41969399804031
H          -0.87396220475747    2.37604745939635   -0.35983913239329
N           0.16800429767657    0.53969777162796    1.36956366506441
H          -0.33496908597940    1.44758548586976    1.40310291178412
H           0.84146924091272    0.57853383666675    0.57320043670252
H           0.69009943537085    0.27100702861501    2.22421119590927
H          -0.53219219666358   -0.22418501284985    1.13483374819157
