    26
        -50.46934514  Gyration_radius:  2.60993442393 Dipole_moment: 4.118
 S           0.98852505871890    0.21380607696291   -0.57495080750978
O           1.53763089113060    1.12996986059974    0.42502489620329
O           0.40283082269484   -0.96275304122872    0.08755316801964
O           0.01824779687199    0.88280751448843   -1.41695502021189
O           2.14493112167722   -0.28307920904304   -1.47382518378587
H           2.58322137730726   -1.00977698056836   -0.93856894234158
O           3.32719515873841   -0.05942848523612    1.95900192919902
H           2.63796923232382    0.44085514512874    1.46788358098616
H           4.12006404901457    0.47818883260278    1.92044090120354
O          -0.69931629777003    2.48139281253144    0.74676956624642
H          -0.87906300421865    2.62652820148248   -0.18782304017441
H           0.22192372714513    2.13837844117474    0.75163697723922
O           2.87487551032908   -2.06062071567152    0.22881304023930
H           1.92152547179866   -2.13069990525529    0.38298840527073
H           3.20540528743304   -1.48880202462559    0.95443232013302
O          -3.64947845536501   -0.57780349393698   -0.49564977466913
H          -3.93269713337713   -1.49382647749537   -0.49768554208593
H          -3.09220469826234   -0.47142409916143   -1.30904591244620
O          -1.98216237302908   -0.38373941449504   -2.52319372544042
H          -1.18012094660408    0.02422779522048   -2.11725826864689
H          -2.17122523709343    0.14221088138287   -3.30225329773482
N          -1.69909904821567    0.06782516994981    1.20653611456937
H          -1.84427771791967   -0.18007970442570    2.17951898130613
H          -0.86251257911307   -0.45695831723783    0.79862271666731
H          -2.54439125251483   -0.16047972728699    0.61763572176874
H          -1.44779675172074    1.09328085414357    1.11035120599812
