    26
        -50.47229298  Gyration_radius:  2.48022180062 Dipole_moment: 1.994
 S          -0.31791349117743    2.17580402347439    0.59837530103752
O          -0.45905439032076    0.95379621840542    1.38445911502902
O           1.07394860283948    2.52478619735768    0.38998599820612
O          -1.10039818164321    2.12289307462483   -0.61952105611503
O          -0.93076073401246    3.34843172910652    1.47101146778984
H          -0.20309621251214    3.55175649879120    2.04899363464037
O           2.09920995492167    0.65858210106150   -1.08413010010126
H           1.69905799981497    1.40254706360968   -0.56540494095996
H           2.71977261147261    1.06570018390832   -1.69065145120250
O          -1.90974200226766   -1.29266623318195    1.08100302326459
H          -1.48466550088544   -0.47645145641851    1.40829879423716
H          -1.18129353704720   -1.93322021959847    0.99005288650971
O           1.72666267160114   -0.56241561009211    1.41112963692581
H           2.18488775247650   -0.21575615745246    0.63326759433701
H           0.96646553533284    0.04288961739276    1.53854854314404
O           0.43316939773066   -2.64456837364693    0.52735818881992
H           0.79241899733429   -3.45654583668006    0.88528001981453
H           0.96777214660339   -1.89821592575644    0.92527767964864
O           0.46706212740196   -1.37814145671226   -1.91708391305865
H           1.09176209965811   -0.65859934065674   -1.70631306380913
H           0.50666390867222   -1.98551666057838   -1.15638270208095
N          -1.85467851489676   -0.27324882257439   -1.33543685372455
H          -2.63088828907512   -0.32403214739509   -1.98453451092962
H          -0.97544216579011   -0.72668020488744   -1.72431018082918
H          -1.61607005900776    0.73157146806388   -1.10157379473661
H          -2.06485072727876   -0.75269972022304   -0.40769931586946
