    26
        -50.46912079  Gyration_radius:  2.44273394614 Dipole_moment: 5.756
 S           0.90310309737833   -0.44384292337966   -0.47291311105446
O          -0.39558091371073    0.26657475001115   -0.41017800543371
O           1.99936225123528    0.48657687280019   -0.33635503085394
O           0.93105265451595   -1.52333247625938    0.50372517008414
O           0.96083806185546   -1.12896988646921   -1.85920741550849
H           1.03553585177596   -0.42396143783913   -2.56013020792295
O           0.56277918062858    2.46835454423445   -1.57705945622887
H           0.05973062855689    1.77274800705049   -1.11295628851407
H           1.43147327988400    2.43793673104154   -1.16047632370009
O           1.86282197052224    0.50414845183651    2.31315570777331
H           2.03206062156005    0.61618433176612    1.35589174527352
H           2.10808878908077   -0.40564571370461    2.49485822057405
O           0.95446877808506    0.80888112662005   -3.58967387964260
H           0.15834908740667    0.78560868262780   -4.12455783071749
H           0.84961769685281    1.56491521997640   -2.95788567520676
O          -2.64289402934361   -1.11020875633376   -0.39138578596275
H          -1.80884898996508   -0.61057976136139   -0.55055200933942
H          -3.35382323713380   -0.47198948695506   -0.47322320545828
O          -0.79022996575577    0.84675241897723    2.21255564602595
H          -0.75699409654041    0.90185578770498    1.24017248394226
H           0.15547183314592    0.86910352648826    2.47502077940221
N          -1.27484064261254   -1.67726929350321    1.82914899239097
H          -1.20459765066868   -0.68444031692165    2.22287546524283
H          -1.41037085349626   -2.39502920613715    2.53113031674522
H          -2.01765987703958   -1.67279168799119    1.09765662764328
H          -0.34891353625277   -1.78157947428746    1.30036306043233
