    26
        -50.46980405  Gyration_radius:  2.40759128241 Dipole_moment: 3.225
 S           0.55338063462980   -1.01152765260106   -0.84509615738171
O          -0.27744804739538   -0.03741131779807   -1.54855188955204
O           1.64036501570042   -0.33556274692030   -0.15425579630220
O          -0.23615553243914   -1.82659809356934    0.07150521123709
O           1.15970284252783   -1.98772701512060   -1.89565591531127
H           1.63419043947274   -1.38004565590598   -2.49822168847612
O           1.98087924835317    0.28503253608008   -2.95213049324028
H           1.06993873248162    0.48494021156179   -2.67998540020267
H           2.55012212430767    0.66029351453728   -2.27413450868866
O           1.76283583199402    0.87752422117933    2.29708028029338
H           1.62898963623107    1.72779136627347    1.84501958738668
H           2.07881456691600    0.29454445605947    1.58622414976958
O           0.87047081096893    2.27638377618195    0.13417576782104
H           1.10542527680461    1.37835905714362   -0.15609653037691
H          -0.04985976941251    2.40890133665524   -0.10422939518912
O          -2.92286334225539   -1.50595606047098   -0.00342284685555
H          -3.31762203728714   -1.94160711155935   -0.75971729092502
H          -1.97476871055625   -1.74043649230598   -0.02235470414688
O          -1.98628144864020    1.03868705096880    0.15491428919865
H          -1.38298950829345    0.74867807591594   -0.56610790130487
H          -2.69456034787975    0.37293181190286    0.12048577700715
N          -0.64709746288075   -0.15606524393288    2.08562283742262
H          -1.22549473344978    0.48793040963081    1.46330151858306
H          -0.44185711361143   -0.97543438548582    1.46296335428819
H           0.28806985768665    0.29860643396056    2.32955557937301
H          -1.16618696397209   -0.44223249238127    2.90911216557314
