    26
        -50.47530412  Gyration_radius:  2.42318434444 Dipole_moment: 2.971
 S          -0.32403033413438   -0.87108665985737   -1.45857543013331
O          -0.82550523563105   -1.47647493624017   -0.20919839110206
O          -0.25213521168895    0.58052543907400   -1.30826170725497
O           0.92233120127565   -1.44370001316345   -1.87898341819057
O          -1.40534404094826   -1.16476642963048   -2.54998830761430
H          -2.22408099843032   -0.83951106278083   -2.14150765130607
O           2.87884773228932   -0.76708900217611   -0.19435066310972
H           2.84000339398562    0.19886351928593   -0.28990998701941
H           2.31950676630877   -1.11697573209486   -0.91919452251017
O           1.85231494148760    1.79413929849487   -0.33277717200248
H           1.07024572204631    1.35664972102141   -0.74870788377908
H           2.03044989225195    2.57299834844259   -0.86180850141168
O           0.52191149251457    1.52926088442194    2.08819983857663
H          -0.38973675954801    1.64027102423072    1.74958799609454
H           1.09302791663930    1.85828725469098    1.37293108830703
O          -3.23613537813384   -0.62685736192623   -0.62197552589286
H          -2.39145943459019   -0.98828034646952   -0.26974115494532
H          -3.89893187343097   -1.31051470951714   -0.50631490859750
O          -1.75731193162624    1.57558050274307    0.65296859110543
H          -1.24291496686535    1.29317244262963   -0.12916594569247
H          -2.60266169504004    1.12762692020145    0.56466312688619
N           1.00646955681189   -1.00328692427918    1.62810164564031
H           0.22470049964468   -1.28703776073278    0.98512166785766
H           1.88280795543993   -0.98577987442463    1.01890000198550
H           0.80957274363144   -0.00039478424188    1.95320208046986
H           1.09805803574332   -1.64561975769481    2.40678512363744
