    26
        -50.47048713  Gyration_radius:  2.42847434399 Dipole_moment: 2.028
 S          -0.83752606105704    1.17875306302728   -0.11417730020706
O          -0.88189415940897    1.24718510831735   -1.56524348402270
O          -1.04248213976879   -0.21486032965255    0.32616001537455
O           0.38669501528213    1.72760278781996    0.42947652014747
O          -2.00538915779544    2.02366597216550    0.46785648584798
H          -2.80316379591519    1.50322492837051    0.24587723453641
O          -0.15471553751891   -2.42616469713433   -0.97110328896191
H          -0.67378620480281   -1.73023261269198   -0.52536168351470
H           0.46707397210592   -2.73152742153159   -0.30207723359882
O           1.25008973770295   -1.24767632437897    1.36906839765492
H           1.43655303277293   -0.74121385336844    2.17376310955696
H           0.38504138340481   -0.89784585811134    1.08584650480825
O          -3.64986847192829    0.00791147219759    0.05289040785734
H          -4.13233505733243   -0.31565005932437    0.81723372933953
H          -2.74206510504371   -0.34631409549309    0.12101835418007
O           1.15031706961919    1.01865536073292    2.91458232857408
H           0.80444236038042    1.34721201594237    2.06186743840814
H           1.68140405542388    1.72954100918951    3.27582901044362
O           2.50721543908837    0.30497404791938   -0.40948040124043
H           1.93874944297936    1.04891088090472   -0.13535400957464
H           2.28947944064503   -0.39082591505974    0.25292856598484
N           0.93791946627509   -0.42958033001347   -2.35342625048895
H           1.22712256792572   -0.45042957222343   -3.32473071389715
H           0.16820559515391    0.28679292256998   -2.18433362243441
H           0.56227975408567   -1.35359338809245   -2.02374241220044
H           1.73063732772702   -0.14851509208140   -1.68536769257226
