    26
        -50.46674006  Gyration_radius:  2.55131522863 Dipole_moment: 2.130
 S           1.56450362992485   -1.40298928982881   -0.01823467390306
O           1.03622345578921   -1.27027404924562   -1.36601435182360
O           1.92746320211604   -0.09596767718655    0.54161868550006
O           0.70850004227822   -2.14203498528531    0.87392473924433
O           2.91287062769607   -2.22256940305449   -0.14243446821647
H           3.43150215205266   -1.74806376428311   -0.78618572415023
O          -1.82199821241452   -2.85393511846294    0.43989459074211
H          -0.88708873550339   -2.69858433880872    0.68892686807716
H          -1.84830074930497   -3.72279214545190    0.03683867517594
O          -1.43389638642851   -0.50732711789121   -0.78353597953206
H          -0.56728521927732   -0.78692294921756   -1.15085113008875
H          -1.85320828005454   -1.33950334808395   -0.48605836125135
O           1.39973025125147    1.45105718555603   -1.58678138638707
H           1.24337274076675    0.66794149975254   -2.12707756473748
H           1.70987390968122    1.08272881684739   -0.74021746610748
O          -0.95828379555883    3.02143018455232    1.32891039736980
H          -1.13976737523573    2.88839207670398    0.35889853006332
H          -0.23117943479643    3.64423132987785    1.37624516100197
O          -1.13539097714044    2.30762448685084   -1.18660109105647
H          -1.56113749326693    1.44411582888827   -1.24822104146091
H          -0.19473108189151    2.14451037880696   -1.41327012807571
N          -0.46610806225697    0.43103827196177    1.50799281141631
H          -0.65997316441698    1.46715813964277    1.61575318958711
H          -0.98059706070060    0.08171988337659    0.64493030813338
H           0.55134286737825    0.26832254884067    1.30146725912110
H          -0.74643683071714   -0.10930644490251    2.32008216136880
