    26
        -50.46820941  Gyration_radius:  2.43460481679 Dipole_moment: 2.298
 S           0.40838613629024    1.30563331143019   -1.22083782870016
O           0.62862206096407    1.69968315473341    0.16047905116541
O           1.08713261248894    0.05679903764749   -1.53320425020327
O          -0.99561008359808    1.28555953755338   -1.57404155863260
O           1.08576316694631    2.40086370244652   -2.13619662294939
H           2.01151452064435    2.19334564258310   -2.05599030556443
O          -2.43608838153372   -0.23729890752630    0.02869199158045
H          -1.99872501694937    0.45677009883410   -0.51390121950881
H          -3.10934768335254   -0.61604329942087   -0.54192698562599
O           0.83338724086350   -1.24252607679546    2.39609769513370
H           0.16533032188426   -0.54997743206783    2.59857044880413
H           1.64114433321593   -0.73563011110002    2.16774266104060
O          -0.90722385127936    0.78360214958153    2.22155409250129
H          -0.39043084875718    1.26308968841057    1.54990300514188
H          -1.71178138650148    0.50226304214333    1.77326481019826
O          -1.29098815092335   -1.23686244885537   -2.57257449093610
H          -1.22896911998878   -0.29017941219135   -2.36295480418982
H          -0.54758460620207   -1.41381785802763   -3.15065919102432
O           2.61937856745037    0.56317951913560    1.49875937154993
H           1.92815950299410    0.98605474501306    0.94615072045211
H           2.85160502503030    1.20957505816156    2.16825626563318
N          -0.12850836176002   -1.70122054266293    0.02857589478945
H           0.30298204150737   -1.64129864198322    1.02048347751516
H           0.43521249429679   -1.09667993609588   -0.62301093654219
H          -0.16318712485184   -2.65137430011478   -0.32573268902282
H          -1.09017341709890   -1.29350972906134    0.05250137854700
