    26
        -50.46898157  Gyration_radius:  2.55823661685 Dipole_moment: 1.082
 S          -0.22113467607215   -1.12465310891170   -1.65769411032451
O          -1.25581167506857   -1.94370652617800   -1.06433332312168
O          -0.72878619873667    0.16295154623121   -2.11305554519143
O           0.94362146381184   -0.96526926821902   -0.80110718061994
O           0.27596525040049   -1.90399188373274   -2.94455365682994
H          -0.51959372781198   -2.34816185812257   -3.21825886687237
O           2.37368694655631    1.19507088207887    0.13746561018444
H           2.11784108864048    0.33605616849936   -0.23388691654140
H           1.79692483041251    1.83030518743163   -0.32249230978642
O           1.70720022106444    0.96910189999855    2.69430847857554
H           2.03181269023392    1.16717897420319    1.77887540808923
H           2.45199374330506    0.59077687933861    3.16271847203179
O           0.47928979346875    2.42920841172043   -1.42122099308723
H           0.76344724605680    2.91318864950134   -2.19762730483098
H           0.09446545259724    1.58679401313527   -1.74969735947274
O          -1.78260270284224   -2.56264039504296    1.47604427334895
H          -2.73756862804906   -2.59812760166755    1.55033984636740
H          -1.59345993149957   -2.47349107931162    0.51729519420816
O          -1.79840177947716    1.35635614332954    0.04506808250815
H          -1.65485031034354    0.86057225796337   -0.78430230484048
H          -1.30741296093091    2.17710163980585   -0.07695677424344
N          -0.28928209047222   -0.33208124239129    1.47619781153717
H          -0.95278818488418    0.38870304696771    1.09950165047319
H          -0.82843572852591   -1.14740947674053    1.82334268524129
H           0.27001904292438   -0.65987814751230    0.65510407541277
H           0.36386081524700    0.09604487762396    2.16892506778123
