    26
        -50.47230335  Gyration_radius:  2.43455041075 Dipole_moment: 1.635
 S          -0.62261583751130   -0.91186555328456   -1.79294315769501
O          -1.83837718941080   -0.20673972530652   -2.12315199496307
O           0.58786168175402   -0.17705741391816   -2.12786240229765
O          -0.57841007719474   -1.38637949614033   -0.41773729839822
O          -0.62474757848654   -2.21824562375360   -2.69879415428100
H          -1.19391355724633   -1.94868002023089   -3.41139968575698
O           1.98991400211273   -1.16916085808305    0.12651644903031
H           1.03822162290802   -1.29238232627802   -0.08261054540543
H           2.39115219573009   -0.99823174399528   -0.72912466444488
O           1.74057834260523    1.22362274214473    1.30159820451851
H           1.50328259969798    1.73674947059258    0.50984697310143
H           1.99028127765094    0.33539932610393    0.95701592189135
O           0.69330626143178    2.17595833628455   -1.05570504628798
H           0.94414445635039    2.80092235631569   -1.73727945629208
H           0.68078238729926    1.28346221643829   -1.49311160955812
O          -0.46820836477714   -2.08870849177579    2.13014416385808
H           0.46430477120865   -2.32088401338411    2.15437794818647
H          -0.69527805092557   -2.06042246146626    1.18247854000599
O          -1.78144797442049    1.46971247324614   -0.08018243511735
H          -1.96830131903208    0.82374797902072   -0.79232172140496
H          -1.01402762784099    1.97090044863786   -0.40446674659069
N          -0.66108296165182    0.59417495230863    2.14422318745907
H          -1.22925803374731    0.86033743400924    1.28490579337205
H          -0.66281896888818   -0.45009193116226    2.25189761357192
H           0.34200510345763    0.90272792540331    1.93216047789955
H          -1.02734717284169    1.05113399677832    2.97152564753726
