    26
        -50.47395402  Gyration_radius:  2.40832174822 Dipole_moment: 3.051
 S          -0.58880890516875   -1.32661418444751   -0.99801085001342
O          -1.33255235306401   -0.91993503120167    0.18714492823280
O           0.20233706864209   -0.20688167163690   -1.52259718188661
O           0.22837125670240   -2.49465270429944   -0.75758340415082
O          -1.63274480538879   -1.69429410600332   -2.10910894029742
H          -2.03002079707521   -0.84364440035316   -2.35198206529965
O           2.26844055489343    0.68365410681070   -0.09785888441782
H           1.79178481179334    1.28573008976837    0.49976593718585
H           1.60491268409082    0.43850471480513   -0.77503001159798
O           0.47419142090728    1.99447261563171    1.54290712390498
H          -0.35206507128252    1.95574101910908    0.99509646904991
H           0.43363357678093    2.81961308880223    2.02791589564975
O          -1.80319366953530    0.99184298266834   -2.59675720470470
H          -0.93168804378123    0.69370088331151   -2.24090435222932
H          -1.64823369945175    1.28319176780693   -3.49719752965389
O          -0.02641381375015   -0.55640922939774    2.50178622489380
H          -0.67857417699389   -0.77273572786927    1.80571506901065
H           0.15992007137316    0.39108794680465    2.37077307141423
O          -1.76734661019579    1.68942880179590    0.18716498072561
H          -1.73545993146020    0.71079366226653    0.24421216457860
H          -1.92205139083312    1.87146543113282   -0.74621098430377
N           1.88945797993591   -1.62422414383167    1.08079031584522
H           2.26025648348887   -0.73125684200274    0.62963051691384
H           1.31197310721998   -2.11481012527259    0.34497457068332
H           2.62403689579182   -2.22026862377728    1.44485780142306
H           1.19983735637041   -1.30350033061274    1.83050633904082
