    26
        -50.46810423  Gyration_radius:  2.48271738341 Dipole_moment: 3.304
 S           1.40369660484442   -1.25725151350940    0.29593944600146
O           1.87315971486484   -0.51791227676322   -0.86924401403741
O           1.86577420256420   -0.69570050066705    1.54813226600551
O          -0.03492021664242   -1.44267023959140    0.24568977550807
O           2.04133574279002   -2.70743638814701    0.21314579722415
H           2.83222947360074   -2.62246981077402    0.73623079405697
O          -0.76285621900750    0.32990129892731    2.10047015320838
H          -0.07101731155314    0.36394125200866    2.76545367962726
H          -0.46586597181739   -0.35738006863839    1.47179546732152
O          -2.73871049513199   -1.29356961026998    0.45814553361086
H          -2.74396761622883   -0.60867362171220    1.13351565591272
H          -1.82043430762710   -1.60667489730562    0.42705738030269
O           2.33377196795847    1.77745566379982    0.69413675060994
H           2.67651114885649    1.51786222629059   -0.16538304637883
H           2.22689457974065    0.92989549303374    1.16926891782540
O          -2.44124363065172   -0.54851859099574   -2.06623997733028
H          -2.32652874992278   -1.39721149134885   -2.49729942716885
H          -2.70491811622214   -0.76102486116983   -1.13736903411243
O          -0.26669644315600    2.36786932904601    0.40369039744930
H           0.70135843582664    2.38386254395107    0.57054376276185
H          -0.62198797187252    1.76628134754625    1.09017583525673
N          -0.19373015649804    0.87619093718616   -1.73867066862084
H          -1.06895544654753    0.30556819471683   -1.87562990218806
H          -0.32331076083281    1.54876004678670   -0.90627852307358
H           0.61434056182868    0.24920125392362   -1.48493838497637
H           0.01607097094531    1.39970426341836   -2.58233863475039
