    26
        -50.47472238  Gyration_radius:  2.50577895753 Dipole_moment: 3.302
 S           0.31706494528805    1.08305760698239   -0.08430808162406
O          -0.90214356278984    0.68605681462383   -0.78744233894621
O           0.20564251396015    0.78160453523864    1.34734345895792
O           1.48049440741007    0.43482540987213   -0.66976335082270
O           0.50064780165577    2.60575794955935   -0.24475558724692
H          -0.09122527854349    2.99040271346673    0.46961644382791
O           2.76293770017480   -1.78211585271349    0.14787262522801
H           2.55916609883739   -0.85000949785589   -0.06307466087834
H           2.68781588648227   -2.24030460943601   -0.69612057952323
O           1.18558254281629   -1.59808817446002   -2.34460329733189
H           1.29007966881983   -0.78016532928811   -1.80761061639403
H           1.09497436731159   -1.30750268437703   -3.25297373441300
O          -1.04067844390006   -1.96549116866667   -0.83530952698959
H          -0.33953579355352   -2.10400681282979   -1.50026657774459
H          -1.19472248220498   -0.99686003469291   -0.86223687610158
O          -1.09139128384373    3.12354927161354    1.68937047874388
H          -0.72130919764925    2.31779910936749    2.07829962624551
H          -1.94339614501433    2.84452563657223    1.29061004347771
O          -2.99591793325432    1.93626817238123    0.22997640857027
H          -2.27847056073021    1.40069531031764   -0.17448383803985
H          -3.45425792595712    2.36042046200833   -0.49727964283805
N           0.39040231967575   -1.81564323169362    1.34387525527659
H           0.16914977980500   -2.34011704272113    2.18287245689618
H          -0.27085627634095   -2.03718947572394    0.52960992436910
H           0.30173581651728   -0.76799330125248    1.49761697040000
H           1.37821103502371   -1.97947577629544    1.01316499689843
