    26
        -50.46871033  Gyration_radius:  2.45501587182 Dipole_moment: 1.585
 S          -0.40176177961882   -1.39270897220051   -1.22896214236307
O          -1.59956408525148   -0.87991379145903   -0.57785047624503
O           0.24131281527970   -0.36094964314614   -2.03489267987861
O           0.51245126241613   -2.03841926833956   -0.31903556434710
O          -0.90637383091823   -2.50185640741582   -2.23618889671272
H          -1.64405293896001   -2.05897422533087   -2.64043190552640
O          -0.14406742771473    0.68537954360182    2.60012564777567
H          -0.70701065829176   -0.11519402285501    2.64489121929581
H          -0.57776861818533    1.23047242379351    1.90344910134593
O           2.37917708088307    0.90606595770530   -0.95569366467589
H           1.78189847078586    0.31173537004488   -1.45036095689677
H           1.99757264891342    1.78269967459298   -1.08009316534682
O           0.03962288568450    2.29347506992105   -1.87621336627388
H          -0.38804384781374    2.68673311450820   -2.63760168316276
H           0.04258375217379    1.32370518499447   -2.02459477256644
O          -1.64299218444449   -1.47860277184050    2.03646914827847
H          -2.57783894670368   -1.48005162664419    2.24926647975811
H          -1.58853099851843   -1.36030372706270    1.06688175670991
O          -1.33750568800440    1.63699489246697    0.42657211554414
H          -0.84819506595917    2.09665032493562   -0.27320051556671
H          -1.55355317299213    0.76262476374689    0.05629679130744
N           1.80770964975525   -0.40925363220449    1.28933922441283
H           2.18288221208737    0.23152699565999    0.54781285771705
H           1.31132015405333   -1.17049802594377    0.75839338038140
H           2.55373381792741   -0.79711147882143    1.85566708939914
H           1.06699451341586    0.09577426729914    1.89995498763526
