    26
        -50.47073306  Gyration_radius:  2.43645109954 Dipole_moment: 4.194
 S          -1.18654540071020   -0.67654589071818   -1.18538200874293
O          -1.05516855534663   -1.84271435364415   -0.32017571123326
O          -1.63398884649966    0.48215059838014   -0.40588738554327
O          -0.02329219638697   -0.40231605073882   -1.97778513694639
O          -2.36910028571786   -1.00765350869835   -2.17910630913517
H          -3.01311437936121   -1.38763728267844   -1.59149756433423
O           1.62179806445733   -1.89641744356747   -0.20602323562080
H           0.65043838363908   -1.94713149080248   -0.27953048046633
H           1.92217223140757   -1.73664810844890   -1.10419233865115
O           2.18064394550295    0.49110052130449    0.93656245923091
H           2.13643808667147    1.03143649292380    0.10442047301162
H           2.16888909567826   -0.43656567760774    0.62214366019845
O           1.63375893451591    1.65953323376898   -1.34882747286697
H           1.13728634918880    0.91469500605831   -1.73119362912496
H           0.95774745544228    2.33482321384272   -1.16363371212800
O          -0.52025732639597   -2.05882185991717    2.29433145103366
H           0.33090678856544   -2.50432296785292    2.27851348071573
H          -0.85643675722254   -2.11887484637648    1.37790120174789
O          -0.73263924420555    2.96514680399011   -0.87072255909638
H          -1.13909315994257    2.08746627310106   -0.73190937570857
H          -1.14485788172036    3.33264153083776   -1.65376772635255
N          -0.22585955862775    0.56309955838912    1.85010278009437
H          -0.45970295074635    1.30053441733864    2.50535768390563
H          -0.83089273694383    0.61906725359559    0.99620394750913
H           0.81882007832108    0.62537931771581    1.52541486723236
H          -0.36795014353341   -0.39142473034926    2.25868266127962
