    26
        -50.47398678  Gyration_radius:  2.43772437599 Dipole_moment: 2.216
 S           1.44521401871124   -1.02729914778984   -0.74693542858710
O           0.09633299738492   -1.27000308765013   -1.25649837891337
O           2.15992791168793   -0.04019564921521   -1.52200303655135
O           1.42001131175573   -0.76917669427737    0.67940870562317
O           2.23830159589153   -2.38366712210254   -0.93460852283169
H           2.57084996710554   -2.26359833180395   -1.81674256240530
O           1.22719035872671    2.38581421800318   -1.18518835798842
H           1.79643772909063    3.01878724018561   -1.62509765182756
H           1.64296541614564    1.50112475752042   -1.31515142198205
O          -0.07611635568536   -1.57080285569864    2.71798671255297
H           0.63504207200062   -1.41021653415008    2.06421122309831
H          -0.08962552559937   -0.78913060648569    3.27590559026164
O           0.26130216881439    1.59598030851577    1.30238434753053
H           0.57841439990047    2.16422453886223    0.58554176590970
H           0.72975946321199    0.75334597330245    1.16384527192725
O          -2.25094482872771    1.14285019799676    0.50761803352153
H          -1.42876574399609    1.44749837846705    0.95549354402053
H          -2.04874043539926    1.25453230368526   -0.45107156702310
O          -1.13134058538847    1.09766300596096   -1.90535902114775
H          -0.71486197418723    0.22147444393877   -1.84871633720344
H          -0.40674593954186    1.73202520317028   -1.79034595610104
N          -1.75253835381470   -1.38550347312967    0.63428647859505
H          -2.09355352690805   -0.34823423398172    0.62670139972727
H          -2.51475156156198   -2.03810890745914    0.49252157928524
H          -1.04694788450195   -1.45522165743699   -0.14298895643855
H          -1.24681670511292   -1.56416226842781    1.53480253695509
