    26
        -50.46572484  Gyration_radius:  2.50676784037 Dipole_moment: 4.798
 S           0.97468042304666   -1.51025588897426    0.60310310091064
O          -0.45599050464459   -1.52194398025775    0.88971560247976
O           1.20821101181464   -1.73922752276082   -0.81780943625904
O           1.65732495769788   -0.34468564102731    1.10898276657882
O           1.57620726447245   -2.75109846339179    1.37172612717240
H           0.94569652245087   -3.42707329660670    1.15116448388188
O           0.76449439975143    0.96250605013942    3.31568435451299
H           1.37020179333048    1.69730969283769    3.42521603973288
H           1.14421329907143    0.40930788922723    2.60748367344002
O           0.61586804830257    1.88411980807382   -0.00279073573683
H          -0.21984439427506    1.76171303659268    0.49487877931613
H           1.17874655172817    1.15525771272572    0.31144311536264
O          -1.35495607406463    0.93968827636184    1.56959205487290
H          -1.06796006917644    0.01937632691116    1.42243981007372
H          -0.90440236973212    1.17837755803096    2.39549408298400
O          -2.49417044991152   -0.67845085702607   -0.63728578265619
H          -1.90250030479141   -1.17372723241427   -0.03721926847490
H          -2.67760496460425    0.14187684257720   -0.16639168534854
O           0.40826528448076    1.88374650676985   -2.59655725963642
H           1.29678107159220    2.03995855045476   -2.92003088623122
H           0.45766499367227    2.00270396421002   -1.60761322812212
N          -0.51081877163922   -0.58913231399422   -2.40043284540918
H          -0.66400322994967   -1.09590147838445   -3.26539769999498
H           0.21881103516103   -1.08421883532391   -1.80190739398126
H          -0.16885149915813    0.39479912743926   -2.58930197578998
H          -1.39606402461548   -0.55502583217995   -1.82418580369765
