    26
        -50.47900074  Gyration_radius:  2.40300152345 Dipole_moment: 4.346
 S          -0.05474876241520    0.29980222040595   -1.53975511522047
O           0.20799710167377    1.38280978231629   -0.58266380460394
O           1.12681608633925   -0.54680081470799   -1.67346449790448
O          -1.24463380339064   -0.44301102496792   -1.18877657296773
O          -0.32969673777910    0.97088276070846   -2.92128785974573
H           0.51249283168929    1.43113267412248   -3.10522965904882
O           1.54471091735324   -1.97985702081128    0.45092306032591
H           1.39998165077851   -1.48353560511034   -0.39525894607679
H           2.25609124436247   -2.59827991883936    0.27650702851723
O           1.18954120878323    0.44654419690079    1.71778191214478
H           1.51578243208666   -0.42475680195449    1.43733272508728
H           0.94020329454181    0.90337823682444    0.88678607285683
O           2.15244221976977    1.78071725483724   -2.52633561012275
H           1.89147498391638    2.23247264412143   -1.71621502205363
H           2.19350312431541    0.84057982078322   -2.28884047114159
O          -1.17323716836811   -2.23075750905945    0.78880712087108
H          -1.33323785984527   -1.72165168133135   -0.03252684695536
H          -0.21618801946385   -2.40260987643981    0.77580153070488
O          -2.24564713734323    1.48930925640811    0.40888425051282
H          -2.51232168034126    0.82033003325406   -0.23656885265893
H          -1.34933781912957    1.72992476814181    0.09762794598557
N          -1.31271803553589   -0.09903146206246    2.31282121681916
H          -1.81848532640922    0.59153335507236    1.68661163724154
H          -1.36930493897693   -1.04952409642253    1.83081643300333
H          -0.28492429959845    0.17245736713594    2.28191358616563
H          -1.68655551701617   -0.11205856932631    3.25430872825937
