    26
        -50.46858687  Gyration_radius:  2.53241725498 Dipole_moment: 1.623
 S           0.52101242543613   -1.06621865882810    1.63803234694002
O           1.72511617900193   -0.47632986768731    1.04839966911760
O          -0.52858844712973   -0.05354949416014    1.75054890826967
O           0.09383155420461   -2.25455471829977    0.95828825284639
O           0.90601065645503   -1.46555129059995    3.11741435246709
H           1.07466339852903   -0.62265844557443    3.52647878676106
O           1.31822433846662    1.41260249118310   -0.73984703552591
H           1.54090526017014    0.80340893100112    0.00173347851165
H           1.96409963701017    1.22354744344565   -1.42430756525885
O          -0.70636620633762    2.58257659701345    0.97168939551829
H          -0.68131429643776    1.72530778429204    1.42980330604574
H           0.08127316460842    2.59879483954679    0.41607747868366
O          -2.78224933915514    2.19417578099069   -0.71071613273488
H          -3.62085348571110    2.32045559202352   -0.26617213538527
H          -2.08836678603208    2.50810990324673   -0.08711479461836
O          -0.46216985979262   -2.29826337294784   -1.68610944271024
H           0.47468846853265   -2.09957260900200   -1.87384418129013
H          -0.44199627958037   -2.60045003491155   -0.76131325816045
O           2.14377787289686   -1.54385107095548   -1.37398428417712
H           2.02362555754591   -1.22294967086557   -0.45623857921036
H           2.71247361202344   -2.31237722585270   -1.30788566449500
N          -1.07600571417562    0.12293756000822   -0.85799291211807
H          -1.02267265823000   -0.81134807814186   -1.35226446207964
H          -1.90738660291017    0.70679494920016   -1.06461197192454
H          -1.04164542181153   -0.04946111907671    0.17183962374321
H          -0.22008702745300    0.67842376467828   -1.06790317970456
