    26
        -50.47294873  Gyration_radius:  2.44425256516 Dipole_moment: 1.561
 S          -0.03988663639208    1.37377480191542   -1.49793140247443
O          -1.15864718286300    1.73012310418872   -0.63898152783774
O           1.23592203719112    1.73431905708164   -0.91304679492052
O          -0.10077803264706   -0.00932920675079   -1.93823009435691
O          -0.18634135048424    2.24429650079484   -2.81265679143845
H           0.01477409335780    3.11170253455887   -2.48002878388776
O           1.87204215219608    0.78648762558068    1.41283825365041
H           1.66617442438550    1.12286895661245    0.50192203038566
H           2.75601024690654    1.09853967118789    1.61184556187010
O          -0.77693883422178    1.31523237175019    1.95354026822226
H           0.19198391619524    1.27656982848885    2.00577947835082
H          -0.96821909827362    1.61300063875269    1.03732313433187
O          -2.40299001079881   -0.66354501222789   -0.88899398113302
H          -2.60114343520159    0.26838201925177   -0.72723038556390
H          -1.58618888021060   -0.60482798610286   -1.42929408262348
O           1.70050372371253   -1.88854927504723   -1.46393670703012
H           1.12016655064791   -1.12951081783785   -1.68309883162587
H           1.47569245744209   -2.58103022899661   -2.08710513627748
O           1.21515130444542   -1.86123103435420    1.16858562725717
H           1.44560679293125   -2.00738163399894    0.22641717250499
H           1.57586089247652   -0.97752145816524    1.36911158386038
N          -1.30754949760899   -1.21505915775972    1.46773918660624
H          -1.83757793080723   -1.77493663072514    2.12529863376333
H          -1.18385797474481   -0.21374046343694    1.81216989467572
H          -0.31946940384806   -1.60349490848074    1.33413693341177
H          -1.80030032379610   -1.14513929629008    0.53382676027074
