    26
        -50.46017062  Gyration_radius:  2.51443910226 Dipole_moment: 4.913
 S           1.18590344535407   -0.28731181118054   -1.71322813006348
O           0.40104134639367    0.59694462645697   -0.87115069615016
O           2.60700941938820   -0.22851990738471   -1.47000798547412
O           0.64180990731296   -1.64170476297323   -1.67829292951571
O           0.97301782543615    0.24163967697429   -3.19903080061006
H           1.74166434556448   -0.10459317269720   -3.64014092818753
O           2.59800515000002    0.07819041996962    1.14424668764674
H           2.68795345033810   -0.07816643440625    0.17836213341767
H           2.46626335828218    1.02658791684120    1.24649468643234
O           0.23306308807525    1.89047075482378    1.52955456071211
H           0.39891506484114    1.45026069094832    0.67877986907768
H           0.04129125151474    1.18124685134448    2.14953465944189
O          -1.71024532586523    2.23377374264359   -0.53587216777607
H          -1.35728905817926    2.55284622173976    0.30609607323588
H          -0.96056377394541    1.75867400919608   -0.93585731665609
O          -3.07791257041111    0.02530927537003   -0.20798233060382
H          -3.53981777660795   -0.08253415545562   -1.04081532847372
H          -2.63619151450972    0.91743134000750   -0.26469494944922
O           0.50168593765538   -0.96355380353178    2.31285564979533
H           1.31054792826171   -0.59193127633387    1.86193322353633
H           0.82907044027282   -1.60508067475126    2.94464366344772
N          -1.07979231176331   -1.68502223007073    0.24726235547712
H          -1.86368374925403   -0.99706692535001    0.07310736565573
H          -1.45671114337801   -2.61848704120958    0.37686232221254
H          -0.40270553125207   -1.67532390788707   -0.58388162631796
H          -0.53232920352440   -1.39407942308320    1.09122192918981
