    26
        -50.47444096  Gyration_radius:  2.41415999329 Dipole_moment: 1.586
 S          -0.28269907171840   -1.24493756514485   -1.50092112586353
O           0.12837746739708    0.01061992490657   -2.11200916622810
O           0.82322198358792   -1.88277575056736   -0.79203194795680
O          -1.47384723641183   -1.12460652391950   -0.69523358991136
O          -0.64659354153016   -2.22396074078135   -2.68987722527894
H           0.20478435094958   -2.37450670224188   -3.08593155986854
O           2.58006678623665    0.09894501854995   -0.82876065915409
H           2.15574854905816    0.48570504812063   -1.60222952504074
H           2.10062319133699   -0.74273692198991   -0.70841491403232
O           1.50579673198993    1.67595656249076    1.03033974517658
H           0.89493314889672    2.11339336078381    0.41414182140834
H           2.06305232297613    1.10028520722980    0.45613234240817
O          -0.39650672559830    2.25582334192250   -0.89844585420799
H          -0.22478815341590    1.40184679375549   -1.37195287552813
H          -0.48706444575769    2.92301006982980   -1.58023840017298
O          -0.34156904195587   -2.25465515246870    1.52130639099568
H           0.24733867418880   -2.23766877800435    0.73584010844342
H          -1.22174777744406   -2.25473444247417    1.12736274918322
O          -2.22804939444714    1.01216985469243    0.71045171009658
H          -1.75744406026740    1.68154819927068    0.18464998359939
H          -2.16438054883980    0.20110761237852    0.16674557485232
N          -0.29014030097935    0.27488361709875    2.33476988831534
H          -0.21430059805235   -0.75920974177521    2.12199539144218
H          -1.15964893143326    0.62225103272464    1.82602829179154
H          -0.34743669243609    0.44014924525229    3.33306291860332
H           0.53227332364340    0.80209742037967    1.90321990692681
