    26
        -50.47350527  Gyration_radius:  2.40637894801 Dipole_moment: 5.127
 S          -0.27780874843691   -0.24157342506239   -1.76527277544759
O           0.40758562384238   -1.13364217148953   -0.81711607327855
O          -1.27000664123997    0.56610522293752   -1.06195943607357
O           0.67862664193511    0.56693868356909   -2.49252437454977
O          -1.02593468228969   -1.14889967584483   -2.78288794995071
H          -1.77991218892610   -1.49888593020225   -2.25772191082984
O          -0.94777247818282   -1.98128475106763    1.18525786087336
H          -0.56437063343826   -2.82914147886851    1.41812563638262
H          -0.44503066273796   -1.67098936208787    0.37968786449434
O          -2.82928303976020   -1.55992393391856   -0.89949674945967
H          -2.46198298389743   -1.95633677714630   -0.09708760183915
H          -2.60420469127453   -0.61565191292727   -0.82971132704145
O           0.09573172843350    0.11621469013530    2.52378059119379
H          -0.37535860454200   -0.62722906300180    2.08326501330622
H          -0.24468118041811    0.16596913120180    3.41809693045284
O          -0.33559540425044    2.22562008768911    0.76489578979855
H          -0.20962919861981    1.59209223697710    1.49330500588419
H          -0.83885109956993    1.72267767631527    0.08714986666395
O           2.32172480082283   -0.25594827249566    0.82061986031504
H           1.75015058257464   -0.73098563107095    0.18120314450886
H           1.75790251386406   -0.11831910176514    1.59626372633632
N           1.87064597209763    1.91438080377652   -0.59752208638773
H           2.52806411767928    2.65213800559296   -0.82288966144697
H           1.02859829882310    2.25604113344805   -0.03410374122336
H           1.47217127971703    1.45730958177503   -1.46852679542532
H           2.29922067784628    1.13332420351337   -0.02483081723335
