    26
        -50.46906610  Gyration_radius:  2.46812853216 Dipole_moment: 4.290
 S           0.43386016688500   -1.31585842560844   -1.66906858530145
O          -0.19997323225166   -0.07846929174696   -2.06066896834594
O           1.87356578619217   -1.32422102221465   -1.78331103922146
O          -0.02784773088253   -1.75554746290077   -0.34928355497741
O          -0.08072708426977   -2.42206812967563   -2.68865757877193
H           0.66788288943092   -3.00843133263321   -2.71441153616677
O           2.27065680520558    0.79210432445162   -0.31570428927354
H           3.00700192670501    1.28275024041176   -0.68571427140653
H           2.13330395050048    0.01546514652108   -0.90502516845933
O          -0.38684873902208    0.61713262365175    2.69523129948304
H          -0.15779328895044    1.40905935092651    2.15426902343844
H           0.38384440316370    0.01162331678991    2.57379743134711
O           0.16689089457096    2.29942200608510    0.70992372320558
H          -0.57329196179758    2.19095607280758    0.09650103258423
H           0.91805286777446    1.83101984110147    0.30881931386636
O           1.53868227351874   -0.94655657355119    1.74263664676059
H           2.06562211595690   -0.29673701079577    1.25686090559203
H           1.04425380029647   -1.41985166483021    1.05208269000133
O          -1.95901799122042    1.47295039689282   -0.98066537323969
H          -1.28935938899378    0.90357909045307   -1.44053937717467
H          -2.41193785752746    1.96081830848704   -1.66942926974085
N          -1.91835696540281   -0.45490538559066    0.93625162603983
H          -2.21938652019886    0.30639314922943    0.30778067827882
H          -1.22357955107210   -1.04425298193390    0.39960380310339
H          -1.35368321275387   -0.01270366339490    1.77561023410303
H          -2.70181434585661   -1.01367093293279    1.25311060427574
