    26
        -50.46427034  Gyration_radius:  2.70535682471 Dipole_moment: 3.117
 S          -0.09057997821722    0.94694915086476   -2.23161409720474
O          -0.41255123147313    2.34509631490850   -2.03327823061124
O           0.93385648215488    0.50249376437333   -1.27598661849715
O          -1.23221505579696    0.06416147420961   -2.23497238899802
O           0.57799506653868    0.83726728697582   -3.66326806546191
H           1.18500800449346    1.57033072349564   -3.65539942308254
O          -1.81749206978174   -1.49968024078731   -0.25740171736564
H          -2.71811961241124   -1.81390512255940   -0.34609751511588
H          -1.64133110733278   -0.94784999565980   -1.06394618257490
O           1.05707248753525   -0.11749457253900    3.12058823186955
H           1.81723473439154    0.43173946238013    3.31771695455232
H           1.42196126924863   -0.94517580524847    2.72079864918682
O          -1.65098003138341    2.77915762361233    0.23780645067870
H          -1.27504941789911    2.64942255245346   -0.66656223114142
H          -1.53582515905170    3.70952140314454    0.43707772030084
O           2.02062206508143   -2.21450271822383    1.83168019018493
H           1.88272410771384   -3.11882431216737    2.11577972458462
H           1.69088500593664   -2.16966709701593    0.89961226746585
O           0.92811963084433   -2.10877819450486   -0.58681566959477
H           1.06803031672951   -1.21885177554736   -0.96012034573021
H          -0.02983034233811   -2.19363897486658   -0.48815794421650
N          -0.43877195216009    0.50634394675838    0.98158653814636
H           0.08075505496656    0.35201312237845    1.87933011678751
H          -0.96573867300848    1.40277966121336    0.95610683418182
H           0.22951187610813    0.53074298487294    0.16921783906012
H          -1.08529146108249   -0.27965066270990    0.79631891272648
