    26
        -50.46605466  Gyration_radius:  2.53144241865 Dipole_moment: 2.205
 S          -0.64891269886273   -0.53137283124937   -1.87868379752574
O          -0.58714180148887   -1.93905873552965   -1.54181205550054
O          -1.93058278547896    0.06873829681090   -1.58168287175835
O           0.45380793608561    0.22191686738383   -1.27922061820352
O          -0.42284373275018   -0.42043484589111   -3.44173859577042
H          -1.12211981117578   -0.97044279677914   -3.77846371263484
O           2.33087760812903   -0.82237183997936    0.49331274221696
H           1.82860147513162   -1.59842696643397    0.77144201475773
H           1.86432420203708   -0.48915584058804   -0.28858005291151
O           1.67667170242075    1.29573619671109    2.08458853172371
H           1.67344841718472    1.97715930888737    1.38654715116215
H           2.17682088150523    0.55115163901089    1.69354898036357
O           1.42934195941526    2.58464293940666   -0.31955114772578
H           2.21274750681776    2.82457100205360   -0.81674048157405
H           1.04638464187085    1.81558540848521   -0.77610405561619
O           0.05399471990871   -2.51112558724991    0.91851799710355
H          -0.22699740906501   -3.40444660124388    1.12035482787408
H          -0.17136854888904   -2.36279012874042   -0.03453044793996
O          -3.03396214371514    0.84178862430719    0.71219400539171
H          -3.37622894045789    1.72655122407459    0.57496361798468
H          -2.77329501684618    0.51412454216525   -0.17565052547022
N          -0.51025732681427    0.13048036752426    1.25955075112214
H          -0.24147636905459    0.23257109913278    0.25986516517836
H          -1.48316154921360    0.48280589825949    1.35875578390391
H          -0.45381535345384   -0.87893725336934    1.46850654799098
H           0.23514240676116    0.66074002284100    1.81061025585590
