    26
        -50.46802080  Gyration_radius:  2.47959024277 Dipole_moment: 1.700
 S           1.58902042081058    0.74211683765908    0.20692825713864
O           1.20911311093523    0.55528639237562   -1.18832937489849
O           0.85410615069389    1.83013985462179    0.81689015334576
O           1.51256163659205   -0.48607179952277    0.98028330404498
O           3.11831422680527    1.14677722564292    0.20416318492262
H           3.14057728195494    1.98934030714557   -0.23946136048643
O          -0.60473024185652   -2.85475767077591   -1.61378191048019
H          -0.65002594854888   -3.31997155678817   -2.44997417544222
H           0.35225561062551   -2.66141930752907   -1.46183052625574
O          -1.46557044177912    1.81574565731271    2.35580763030883
H          -1.85878735341567    2.20628449972817    1.54920122521275
H          -0.52850492296075    2.04534548802033    2.27222586092536
O          -1.61092783134025    2.40708142382112   -0.26338305787837
H          -1.82025341105357    1.67732104167512   -0.85496735349019
H          -0.65898618099664    2.33703348618102   -0.07865910605876
O           1.90054820423998   -2.01683130494937   -1.22684771495527
H           1.75400369250397   -1.09191677357621   -1.49435788712833
H           2.03724611473334   -1.94381436915939   -0.27369542872310
O          -1.30301562153609   -0.30972606643205   -1.22278333193402
H          -1.21444852734330   -1.24986027368187   -1.49635705285649
H          -0.40480671020903    0.06722620040447   -1.34291401009492
N          -1.08868047424720   -0.59924200613727    1.38482741890212
H          -1.35323593577099   -0.51011502013577    0.35476464609202
H          -0.04038353215300   -0.66888778565694    1.38571196118422
H          -1.34796188498886    0.30754339179564    1.88678182019033
H          -1.51742743168353   -1.41462785204517    1.80975680843358
