    26
        -50.47073052  Gyration_radius:  2.48422034223 Dipole_moment: 1.254
 S           0.57840390811250   -0.88511622789252   -1.48306575551768
O          -0.49610862623355   -1.18751735997474   -2.40108682526773
O           0.91122674311815    0.53309548041712   -1.45492015613040
O           0.37311248143743   -1.41049952146428   -0.14499664679818
O           1.86485832698610   -1.64178515621585   -2.02868886071951
H           1.82080439493996   -1.53007675061906   -2.97322348547218
O           2.75354692872209    0.03953718929090    0.39207449444143
H           2.17631157520588    0.37042774512885   -0.32247853626035
H           2.60830845014860   -0.91005183962745    0.39932611443652
O           1.97193413042057    1.25831143387621    2.64987942096790
H           2.29976455199019    2.15848729336388    2.62999151989820
H           2.39479576355718    0.79742118372424    1.88885641275227
O          -1.10191859496144    2.00153051740342   -0.46603922417142
H          -1.83922384617963    1.45869562978664   -0.79249312443554
H          -0.32407090498465    1.68409964911029   -0.96370556697274
O          -2.25455872018169   -1.39108189362780    1.15902111894982
H          -1.49779060130436   -1.89363195433199    0.83748659693668
H          -2.61025175153857   -0.95420689514053    0.36998796534333
O          -2.62510544126552   -0.12492792542754   -1.31752653057452
H          -1.85081521951892   -0.55456262535491   -1.75510083691833
H          -3.36097505939523   -0.22333042926383   -1.92456376749381
N          -0.36168990510639    0.49703143146839    1.57536394628596
H          -0.70394332131233    1.24955659375071    0.91208318129244
H          -1.15860091493969    0.06019828885258    2.05010764174000
H           0.04070733916746   -0.25194296370409    0.95986139331462
H           0.39127831321847    0.85033909664334    2.20384951044255
