    26
        -50.46743947  Gyration_radius:  2.55479238222 Dipole_moment: 4.619
 S           0.15309780251976   -0.37699031685713   -1.28425189608621
O          -1.25231091289987   -0.65723856891024   -1.02372702975445
O           0.54471443201204    0.93211709464463   -0.77600226375491
O           0.97666313899707   -1.43769745561363   -0.70925210130865
O           0.37843634504914   -0.38483460142679   -2.82626196882997
H          -0.07646897388730    0.43767230103835   -3.12265565488563
O           1.93185846327862   -0.81236491992684    3.02280645718874
H           2.00968594697088    0.10849603851462    3.28088514993019
H           2.50604335307663   -0.91310451860175    2.22309066070936
O          -2.88330667408006    1.34812822722342   -1.03823348724693
H          -2.31103348910566    0.53924279862647   -1.05162259137783
H          -3.76066441912832    1.05761870096843   -1.29138239503088
O           3.18116291177157   -1.01131349911405    0.69842599801450
H           3.75849563335120   -1.73946322818809    0.46238557346355
H           2.40854401330136   -1.07598508750545    0.09517998687874
O          -0.82224870606777    1.96520582994691   -2.83991718332619
H          -1.69084498459418    1.93407314422541   -2.40517810394832
H          -0.19190024575833    2.05540520751166   -2.10902615296642
O          -1.11515312535328    1.25838351535790    1.22883698234350
H          -1.93265257447964    1.42855698075320    0.74044256618768
H          -0.41339198919988    1.32641388418605    0.54281060308109
N          -0.29690934136045   -1.21717148651759    1.65185173019755
H           0.11065043864818   -1.45498190877766    0.71592880245735
H          -0.76819766040478   -0.26475669101652    1.54343819776970
H          -0.95970788598081   -1.92793403895700    1.94295648018416
H           0.51543851332813   -1.11747740158324    2.32847162011373
