    26
        -50.46881817  Gyration_radius:  2.47212937102 Dipole_moment: 4.792
 S           0.67860871314825   -0.51560740850934   -1.59452672508217
O          -0.64234411000631   -1.10332398804647   -1.72458229459066
O           0.69650388217179    0.89420103748173   -1.94381166076201
O           1.27719515846713   -0.79261176116062   -0.29987676739143
O           1.61168156241484   -1.23480047842730   -2.65055082044662
H           1.34319948450533   -0.83525756028313   -3.47126941266744
O           1.72339041831174    1.26317765315930    1.49550288278596
H           1.77302113312443    0.51706562986494    0.87739913294549
H           1.76916914983209    2.05511983408876    0.92641152019468
O          -0.79666031162937    0.90061007060086    2.18200724391901
H          -1.18816559090872    1.15686014478756    1.32362635676699
H           0.15367245873806    1.17313214300412    2.10408345653974
O           1.44155721173220    3.08133354102244   -0.50941538377068
H           0.60311218065102    3.54494971116298   -0.45805550585497
H           1.30266829251278    2.34906400978421   -1.13539886950222
O          -1.94061145985052   -2.70867910655428   -0.09101826679521
H          -2.86233349844142   -2.67921585294679   -0.35093152228380
H          -1.44401955826956   -2.19933921763953   -0.77259066930276
O          -1.46794280632244    1.19872929008563   -0.42792433811513
H          -1.97197189188036    0.46028982995422   -0.77817237402551
H          -0.67067527605022    1.22012263352126   -0.98812724228859
N          -0.28360135050885   -1.57519384264750    1.68305137200650
H          -0.59444721484942   -0.58164314390148    2.01449484371225
H          -1.06377046722600   -2.08992251223928    1.22940189998044
H           0.42056207525822   -1.38716942024332    0.92445565414899
H           0.13220183507396   -2.11189123591395    2.43581749987844
