    26
        -50.46245380  Gyration_radius:  2.44216001968 Dipole_moment: 2.214
 S           1.65086922413992   -0.42094030870967   -0.69236130511239
O           0.96166431290455   -0.31033227368457   -1.97639392138140
O           1.64726946349741    0.85556110027402    0.01042069825975
O           1.15140337918492   -1.51002665055663    0.10618017180695
O           3.15963299089345   -0.74275944725000   -1.02789775131314
H           3.40355783543140   -0.02430690131176   -1.60268618668699
O           1.46854308545186    0.36848763565704    2.64214926179140
H           1.85279581756841    1.15047895902771    3.04276019696647
H           1.60879797707933    0.45701047791006    1.67956925611755
O          -1.23221733299482    0.19897741772935    2.43367804788602
H          -1.38701986285577   -0.67755043914186    2.05403160293322
H          -0.28906166964185    0.20532553299070    2.69215656052512
O          -0.91280264610892    1.60734918151395    0.23459107914230
H           0.05595053266147    1.49156704534099    0.15797436517048
H          -1.13685725856932    1.25064718492711    1.13365488109787
O          -1.26090911999838   -2.15416958430270    0.84795612632450
H          -0.31268136553338   -1.95878975165134    0.64878012995689
H          -1.28214092866466   -3.05619174299624    1.17050968355268
O          -0.74984787615719    1.78319550465722   -2.78501262620739
H           0.00259717238653    1.18258805513387   -2.69925641605959
H          -0.74833337027004    2.32999289755133   -1.99500366330884
N          -1.56352066577525   -0.43091679127323   -1.22920229289557
H          -0.61162774861333   -0.55406452797420   -1.66045457654391
H          -2.26640169787869   -0.31200145141858   -1.95246917599411
H          -1.75926549044403   -1.21141690104975   -0.58301823212777
H          -1.45039478769277    0.48228576860630   -0.65065589390065
