    26
        -50.46651255  Gyration_radius:  2.49844114831 Dipole_moment: 1.466
 S           0.61506505654289   -0.74944177321620   -1.82621618693457
O           0.29347658846886    0.65930339907017   -2.02516346048877
O           1.38192601033414   -0.93182820425286   -0.58946856208442
O          -0.52862021458739   -1.61643726250509   -1.88965307373907
O           1.58810732952337   -1.14561398180298   -3.00299741074312
H           2.26279232161860   -0.48057982833999   -2.91993915069789
O           2.09761014731698    0.98209688867381    1.24200786045721
H           2.02520676042921    0.26256070768123    0.59292199197809
H           1.71236348961069    1.75996816853128    0.79145073742851
O           0.31237780777410    0.28431201879717    3.01575748932328
H           1.08582148131983    0.58832847825604    2.46118401678493
H          -0.29026197443321    1.02815454990097    3.06247506338219
O           0.65335518570783    2.69884714481928   -0.27400724896544
H           0.66345880979907    2.07167455988432   -1.01892557623021
H          -0.26896186358181    2.74319525890123   -0.00563034317076
O          -2.42257727805915   -1.37085864231322   -0.03851249275707
H          -2.46106682834722   -0.39824840368532   -0.12506064388694
H          -1.94401127703759   -1.65152385852634   -0.84302434659772
O          -1.93876712794170    1.20943814478520   -0.71391367817032
H          -1.13814228309580    0.97347794589981   -1.23558013538433
H          -2.57287361263637    1.54622761726380   -1.34965542158596
N          -0.22723861945054   -1.71101206024111    1.35519370085160
H           0.46117608112855   -1.50284362915024    0.58346806162544
H          -1.19984381873963   -1.63180434765721    0.91934561885321
H          -0.06790056015753   -2.64045223960939    1.72819881313755
H          -0.09247160152279   -0.97694064125426    2.10574438762141
