    26
        -50.46050736  Gyration_radius:  2.62196361852 Dipole_moment: 1.284
 S          -1.15075159427140   -1.07994305053295   -1.68245067839645
O          -0.95688464456778   -2.29622379708520   -0.91682587305325
O          -1.86959142836022   -0.06418566762397   -0.91568014620575
O           0.05582485396141   -0.53730203375957   -2.26459524918000
O          -2.09509819246951   -1.47452420122583   -2.89923110496520
H          -2.79491821932313   -1.95927974812727   -2.47258425596989
O           1.87387472228687    0.07695752219886    0.64160900361013
H           1.27012546112370   -0.61457805679476    0.97844284360479
H           2.31037964781435   -0.34674815474718   -0.12593635906210
O          -0.08239346441763    0.73041799539171    2.88848648926134
H          -0.33699035407007   -0.08589704654705    2.42812315641418
H           0.86954564217503    0.79977333999400    2.77350520632856
O           2.52404333993676   -1.19693299459210   -1.61458521949889
H           3.06316455228024   -0.96845181952295   -2.37285126543818
H           1.59127927979652   -1.07251413033012   -1.89943759684621
O          -1.07333116491536    2.90767651686188    1.69457720007083
H          -2.02826977306775    2.82438937106291    1.66842949293592
H          -0.75456566374474    2.18075876305262    2.27813676736698
O          -0.07962084149094   -1.63584061821795    1.42130974236378
H           0.10804001485851   -2.47582083880351    1.84445449025811
H          -0.46658096167668   -1.86868621064257    0.53653241867571
N           0.01425765808296    1.65425154446827   -0.40678183906582
H           0.31215144377250    2.12825488497715   -1.25210608115558
H           0.81690386670175    1.08145703512673   -0.00415208644683
H          -0.34884187917725    2.31618967010958    0.32155138260038
H          -0.77175230105685    0.97680171524474   -0.64794040821939
