    26
        -50.46557907  Gyration_radius:  2.50461655047 Dipole_moment: 2.001
 S          -0.63019679279303    0.47811390887620   -1.87869590815340
O          -2.02291149878338    0.75497550471355   -1.60367691815053
O           0.25852668791263    1.11766970215209   -0.91121551967552
O          -0.31705485404453   -0.93229494981123   -2.01967652465954
O          -0.33128716242239    1.15604209839106   -3.28263354902388
H          -1.09334489083917    1.71887772012439   -3.36873252123153
O           1.56596318414037   -0.49278246788641    0.70121045825825
H           1.16370230208825    0.12411340352896    0.04310595428644
H           1.80586931407905   -1.28035890701817    0.17236057416912
O           1.85792384657769    1.81843534140288    2.20981923445804
H           2.39695204205063    2.42025925596396    1.69376081046961
H           1.95827985382444    0.94557992863874    1.79701479085075
O          -0.75531699484338    1.94894059870562    1.43048585008355
H          -0.54630190442929    1.82170233854543    0.48358694825692
H           0.11132275458961    2.11826862508087    1.85117029094695
O           1.72114090594622   -2.40166911141862   -1.16105974092997
H           2.36834826247057   -2.47527688044265   -1.86376304533533
H           0.95209449236808   -1.93285347224317   -1.55015098984279
O          -2.25578199464877   -1.46040308975090   -0.23489572693166
H          -1.60144882043639   -1.81783156895323   -0.85277452490338
H          -2.47426948201160   -0.60091654711846   -0.65313020259039
N          -0.83669915531843   -0.62890661400005    1.83066754209063
H          -0.96638112812178    0.43613343062897    1.80479849059937
H          -1.01808003707872   -1.01653111414154    2.74916037259180
H          -1.47298260038141   -1.04608512868140    1.08840992020013
H           0.16193367013196   -0.77320201526434    1.52485396419971
