    26
        -50.47023648  Gyration_radius:  2.49916607336 Dipole_moment: 0.837
 S          -0.06049216914753   -1.91648322581772   -0.59835395097203
O           0.51958009258599   -0.87635218454167   -1.44176226863265
O           0.92952681851885   -2.57639360160340    0.22206324527473
O          -1.20236916159456   -1.42215665216209    0.15576614220548
O          -0.62720795836760   -3.02954479532568   -1.57663996365242
H           0.00755661516088   -3.73336651673849   -1.48975095829983
O           2.09420701119784    0.85653369995515   -0.28936338824222
H           2.78028025054225    1.08526358534109   -0.91816984800278
H           1.50755198595790    0.20753932077491   -0.74957035992303
O           2.01408598606113   -0.83546251067002    1.91731097875485
H           1.73678999911451   -1.60655020145596    1.37898732025873
H           2.33872578686942   -0.18659170678896    1.27234561085265
O          -1.75454040909192    2.45478738597270   -1.05187297394487
H          -1.77660781426340    3.05961286388996   -1.79400598033036
H          -1.87081477353310    1.55099925497540   -1.43094952125962
O           0.11376919213383    2.40060957891241    0.86470797303670
H           0.89407953799172    2.04407240975133    0.40589737348837
H          -0.58178777497671    2.50899395861565    0.18015302238707
O          -1.91667236100521   -0.01295617743522   -2.05608189713000
H          -2.24685990079936   -0.55362885648853   -1.32847640614694
H          -0.97372027905347   -0.25103095068862   -2.09174027870766
N          -0.40720399408142    0.16933009754812    2.11236399600848
H          -0.28910458355193    1.15060368166096    1.68884098815078
H           0.57085135589688   -0.22475965001872    2.25177023100313
H          -0.94218590337057    0.18687098533545    2.97281389785113
H          -0.85743752916132   -0.44993980303891    1.39371704594573
