    26
        -50.47523159  Gyration_radius:  2.42130714244 Dipole_moment: 2.918
 S           0.01328355168568   -0.75188185662176   -1.70200096241949
O           1.02655898138708   -1.14774933511658   -0.73265077676880
O          -1.26193284808451   -0.46533994011696   -1.07232533875588
O           0.48150543423698    0.31393667058853   -2.56420764920956
O          -0.23606685804453   -2.00575387210818   -2.62816674844452
H           0.59096516594356   -2.04315774348898   -3.09429514791206
O           2.29452091994493    0.92554273878864    0.39609463141019
H           2.01846712185831    0.10957409851152   -0.06891897288995
H           1.93744683572354    1.65021414235617   -0.14367977810451
O           0.14110436828810   -1.95970477397298    1.66528237719491
H           0.56008943236441   -1.83824760848478    0.78949202778942
H          -0.78044486647604   -2.20974684367178    1.46037439720444
O          -1.29887659716416    1.68976480799368    0.48927775583077
H          -1.45343549897674    0.90890618782962   -0.08092992465370
H          -0.69528730101208    2.24188614017079   -0.03540116689687
O          -2.32638204725701   -2.22194320614855    0.60568910563556
H          -3.18001145648839   -1.86422958302710    0.85443590314024
H          -1.98864948838777   -1.64604747409404   -0.11119264333686
O           0.70623470864071    2.50843348475175   -1.20686857724974
H           0.60195774269865    1.69875300413667   -1.77157472188220
H           0.85221822728772    3.23578355400048   -1.81383970625945
N           0.39510044703849    0.58676212296442    2.19170938654579
H          -0.38309080194652    1.07053746413595    1.65849864104619
H           0.24294497095839   -0.47239363606948    2.12409481057086
H           1.28026668636035    0.78327569141716    1.63945224783722
H           0.46151316941752    0.90282575527637    3.15165080056999
