    26
        -50.46678919  Gyration_radius:  2.39506869456 Dipole_moment: 4.404
 S          -1.00230474102204    0.00293561063429   -0.91801282354405
O          -1.10388778408565   -0.77642528492132    0.31135859555915
O           0.13492305753801    0.94810913129489   -0.79524585212788
O          -0.85064858624462   -0.82668046420730   -2.08974795112197
O          -2.28347197519498    0.84578749240520   -1.08106229232832
H          -2.47451526657838    1.27108271075945   -0.19553002954011
O           0.44101580752351   -2.75427671574328   -0.89294838438516
H          -0.20185237110902   -2.94437862793953   -0.20320702970021
H          -0.04611006868797   -2.15248961824547   -1.50579482132473
O           0.45893146609252   -0.48857845358706    2.36205158629741
H           0.04371569637393   -0.84512344527376    3.14825473664853
H          -0.20135073323883   -0.60643464024267    1.62800030250590
O           1.91794003838347   -0.12254265073606   -2.64278869850619
H           1.38338617090402   -0.72199043696576   -3.16857062626872
H           1.28077006881253    0.48985602753606   -2.25162012181657
O          -0.00815649326537    2.15449160920559    1.57530790812598
H           0.12766022901238    1.87537824119742    0.64777476890251
H           0.25001058164558    1.38390232468498    2.10379879616199
O          -2.60690812629670    2.06815350684078    1.18030112212653
H          -1.65769402874375    2.16125956590770    1.45811573246252
H          -2.92382463135694    2.95593521033414    1.00120351756531
N           1.90185441253152   -0.78791186226196    0.08370964196138
H           1.44577954008084   -1.67570257407393   -0.30138600626029
H           1.84044097889796   -0.77648162530156    1.10989048988469
H           2.84415842678560   -0.67838313811833   -0.28182694688865
H           1.29013831123165    0.00050812680568   -0.28202562440427
