    26
        -50.47086745  Gyration_radius:  2.41835528695 Dipole_moment: 5.106
 S          -0.42534559277847   -0.43695123269030   -1.67697126828139
O          -1.30218937263997   -0.85066582001916   -0.56774845961082
O           0.28559876666358    0.79065826406128   -1.31426981235661
O           0.45121185514400   -1.49524105203538   -2.08673572334796
O          -1.37288183698351   -0.07068814196814   -2.86992685766758
H          -1.82266685275845    0.73236059696109   -2.56446157281764
O           2.34948587049170    0.58714042699599    0.39102539709529
H           1.69902926752029    0.77364633857218   -0.31136202030080
H           1.87186409018405    0.73488609692905    1.21736685549556
O           2.27692803263901   -2.00887966564092   -0.19354610109323
H           2.58777377897975   -1.09012495510797   -0.02157874247995
H           1.77094570105611   -1.94960147406771   -1.02976666268840
O          -1.74875263839884    2.32568867341534   -1.59701421948362
H          -0.87468637507735    1.89746003591287   -1.42636264096682
H          -1.57312611271408    3.10358078168105   -2.12964515615064
O          -1.78588354583896    1.18679279590168    1.05392724792328
H          -1.73256799769574    0.40476151951587    0.46425103906960
H          -1.91678299837133    1.92792999891012    0.45264757749393
O           0.36651299765420    0.62912853580608    2.46386183638290
H          -0.41694149214910    0.94088518611406    1.93842035464508
H           0.26671521480073    1.00247673141126    3.34046738444523
N           0.20164649485421   -1.84863526934173    1.32503601840079
H           1.12813054094660   -2.03984700759246    0.77953390099193
H          -0.49385406175171   -1.55959725967348    0.57962102698430
H          -0.12233258579676   -2.66077185833656    1.83774106229014
H           0.33216885202156   -1.02639224571431    1.94548954602926
