    26
        -50.46709120  Gyration_radius:  2.54572496534 Dipole_moment: 3.097
 S          -1.06398857841381   -0.95873808963433   -1.56404757018488
O          -1.63129372862564   -2.28507766929044   -1.58154158428593
O          -1.83354770804369   -0.01830373167586   -0.77703758201813
O           0.35252457223718   -0.93750872441141   -1.19283769940284
O          -1.07082035797955   -0.43595036725293   -3.07044418302926
H          -1.85844950791050   -0.82633435437528   -3.43590671365627
O           2.86647244804094    1.49393088231896    0.85739744653256
H           3.22364162940517    2.38011031403795    0.93304042841745
H           2.41481554013026    1.45203774777109   -0.00614881444716
O           0.65950568095684    0.95299163899843    2.33644585259856
H           1.55285677236649    1.14584256076237    1.98658270791022
H           0.05491217573909    1.46809259710396    1.74495296257555
O           1.36934486825770    1.45607615988831   -1.44947183564197
H           1.56521338511140    1.59288092805786   -2.37739953559263
H           0.99243965961242    0.54587662809161   -1.38539321115557
O          -2.26648026908858   -2.08011335142721    0.98518918977809
H          -2.67369771764774   -1.21251394314923    0.88310028155994
H          -2.12879367212508   -2.37854562998146    0.06232659650803
O          -0.67854463298376    2.10746031449497    0.36660158432951
H           0.03621930065991    2.20894135347242   -0.27684891063100
H          -1.23638676658450    1.39765194896450   -0.00512342679928
N           0.28240696292250   -1.43324610920965    1.41145855237960
H           0.41979647899449   -0.46455601195187    1.89479811647749
H          -0.72524279679676   -1.73916496326355    1.45594065867538
H           0.47992933018333   -1.29831489773393    0.39243498744233
H           0.89716692160298   -2.13352524060421    1.81193170166367
