    26
        -50.46207884  Gyration_radius:  2.61175461506 Dipole_moment: 3.902
 S           2.16197023427773    0.53428232051729    1.17336337786379
O           2.46146641803439    0.39384094671923   -0.24849959804726
O           1.78761450540521    1.89371679214071    1.51684284953350
O           1.20400340736201   -0.45783732581895    1.62467161893168
O           3.50973897297929    0.22747177869206    1.94911078486755
H           4.04382953447210    0.99176266865601    1.75575069185663
O          -1.54503780136899   -0.10350282599357    1.65961452216873
H          -1.53759837759355    0.84613335326720    1.49067114879971
H          -0.62075745992664   -0.33261941762031    1.84675109101002
O           0.40470834511113   -2.25856422057919   -0.11470049536608
H           0.73016410365783   -1.72856110783271    0.64723274009501
H           1.18439128399840   -2.64051089328923   -0.51995300395993
O          -0.58832536041610    2.27302412868605    0.57530625464765
H          -0.69816357067979    3.20659919512467    0.38845485714396
H           0.30259032670976    2.17904524772916    1.00644490511899
O          -2.31411533474514   -1.53797026883993   -0.51204621013694
H          -2.22075481645290   -1.01281014274120    0.30982862240714
H          -1.68812365976320   -2.26193630014650   -0.40719223928642
O          -1.92777104744568   -0.28004891098172   -2.88479065089794
H          -2.63480618328876   -0.40263031001901   -3.51752635414439
H          -2.19999079037559   -0.75434469854835   -2.06950772618240
N           0.03504504741334    0.25644544832976   -1.15714984479839
H          -0.33519903287746    0.30540256486074   -2.11345693899334
H          -0.42432095876620    0.97860276996055   -0.56714942595122
H          -0.16695545198727   -0.69735777418615   -0.79022432729770
H           1.07639770625526    0.38236699179714   -1.04184663934370
