    26
        -50.47286117  Gyration_radius:  2.42249926003 Dipole_moment: 1.586
 S          -0.61140280699455    0.43798783712754   -1.62325437737048
O          -1.07921572996812    1.56847264384260   -0.84286104591609
O           0.81539082937655    0.52588221726024   -1.90808305027634
O          -0.96708885360720   -0.84568078675420   -1.05058887766745
O          -1.36645469054917    0.53162733517102   -3.00834514474567
H          -1.46757056793505    1.47326631270417   -3.08754028695718
O           2.61363382410528   -1.34995983430620   -1.25652968735845
H           2.79834877321746   -1.88016563282281   -2.03293619472587
H           2.01664451763443   -0.63287388623781   -1.55294834259973
O           1.45002732179126    2.11754154157589    0.09530809948610
H           1.41115746968668    1.55577048493310   -0.70657080490235
H           0.61906612774025    2.60475355267048    0.06459376522691
O           0.80228763469568   -1.90947823713101    0.63644109584032
H           1.60859135059756   -1.89354677453929    0.08254847989203
H           0.09382687227303   -1.64781319741885    0.01310131640068
O          -2.66777254282772   -1.41146511278710    0.93989645417555
H          -2.29479965026886   -2.21885240266749    1.29935484574659
H          -2.18895876163684   -1.24680224249807    0.10477663005091
O          -1.70789747575351    0.98801552530870    1.69734830077213
H          -1.59934959916718    1.31536205192731    0.78120872753212
H          -2.22111128008155    0.16010300306824    1.59835468137153
N           0.80870482577092    0.34848356610366    1.98074753943468
H           1.23892174052975    1.05067482098911    1.32182364549158
H           0.88127319091293   -0.61898159576660    1.53524054082699
H           1.24715622903808    0.37649704938021    2.89384859057569
H          -0.23340872858136    0.60118178086534    2.02506512969539
