    26
        -50.47391906  Gyration_radius:  2.43997782465 Dipole_moment: 2.204
 S           0.97899576788521   -0.03703536638855   -1.66543975660707
O           0.29637817901414   -1.25884869898430   -1.26056237023329
O           0.17210465538022    0.79595016771820   -2.52646683228913
O           1.53195258622993    0.65708462118366   -0.51283244469555
O           2.22352071469763   -0.48424006821779   -2.53464594024277
H           1.82422568178299   -0.52128700307100   -3.39599693422442
O          -0.19914892268352    2.43439996993539    0.67799693120531
H           0.52965493261358    1.97038395182942    0.23468468709475
H          -0.93840417769131    2.39548630391718    0.05068568726797
O           0.56675939357874   -2.96985447745154    0.74404827417275
H           0.52888772088564   -2.49273575057690   -0.11170204637817
H          -0.34710269948196   -3.16907265489366    0.96256565783335
O          -1.97196112691404    1.71123495935821   -1.33175489296753
H          -1.18997175355317    1.38128213993347   -1.83463993628860
H          -2.49173017938362    2.22725339293970   -1.94969758947282
O          -1.89174796947804   -0.62184023051646    0.18727393574847
H          -2.22794245064483    0.16209497865000   -0.27026019024956
H          -1.14457637749724   -0.92189622987289   -0.36196278256483
O          -0.86300355231770    0.50587416368710    2.38561139347084
H          -0.68007337452966    1.37071845621180    1.94778138088029
H          -1.40848076563583    0.02272724873624    1.72423260111272
N           1.36858438310408   -0.64079263350920    1.78976670596404
H           1.56957558584597   -0.13743569064920    0.88942720253097
H           1.15234057622801   -1.63768327358088    1.54653320213167
H           2.14891194550623   -0.56633929843086    2.43194276266513
H           0.46225123706262   -0.17542895796844    2.18341131413890
