    26
        -50.46931061  Gyration_radius:  2.42134964828 Dipole_moment: 6.621
 S          -0.08991391181270    0.49294743216670    1.45381146792053
O           0.58965367891117    1.15236532820075    0.32578184423770
O          -1.18506829245346   -0.34180862341185    0.95352789117311
O           0.83573385761693   -0.22957637534526    2.28373677456940
O          -0.73831272213630    1.62872627750055    2.29808832698241
H          -1.33726820550531    2.05131484877448    1.64926366984563
O          -2.06223215134104    2.76633151110199    0.26780976907858
H          -1.70277026203451    2.41473800606046   -0.56378260144302
H          -1.85470656466681    3.70350665787614    0.28489570302743
O           2.75488960803056   -0.37519729064386    0.09141083935743
H           2.88438515191951   -0.66415533967980    0.99900148173955
H           2.04453033600132    0.29217585027742    0.15162722761364
O           0.31723182965743   -2.69716460229482    1.40536040432102
H           0.61786959504286   -1.87248125231671    1.83705515901679
H          -0.64051968705690   -2.62895277179646    1.42020406736212
O          -0.52355956505987    1.75794750096628   -1.88354078875236
H           0.08531875416943    2.27777403628261   -2.41102144215464
H          -0.04017286120332    1.55419357210521   -1.03141040775145
O           1.29520795721828   -2.28704085060829   -1.05824647089904
H           0.99949270181209   -2.66076112710094   -0.19792051856160
H           1.97634229287881   -1.62491027172586   -0.79643586969933
N          -0.86118812890439   -0.94783625334472   -1.53143001780606
H          -0.73780413590925   -0.03978618256903   -2.00319594994041
H          -1.60139468877767   -1.48979327226172   -1.96287502868103
H           0.06932105511230   -1.51355817417059   -1.47231398224569
H          -1.09506564146325   -0.71899863401030   -0.50940156835527
