    26
        -50.46513802  Gyration_radius:  2.52747208765 Dipole_moment: 5.607
 S           0.55854809143255    1.74429717972976    1.12081858862139
O           1.00496063223956    2.32215267037573   -0.12700364881659
O          -0.71308607510115    1.03165074349506    1.02208288651392
O           1.56735092029552    0.94162396142497    1.78399101572492
O           0.24573562368026    2.97470191713372    2.07814167794692
H           0.92693366092643    3.60800757428047    1.87151365162617
O          -0.78583471185204   -0.44782029737576   -2.73320962255130
H          -1.16150754039671    0.40035032939728   -2.41455615663209
H           0.10302874719442   -0.46575950834232   -2.34514157744334
O          -1.43422433903178    1.84597578769645   -1.44440069069580
H          -0.63036216305379    2.36305176662349   -1.56392153623048
H          -1.37303921792736    1.54576431179423   -0.52138297706856
O           2.04045332779189   -1.59142317548186    1.42067821278086
H           1.92316872008925   -0.62541356432413    1.60164018108351
H           2.61297809025624   -1.92616001661057    2.11187915830717
O           1.28925725514812   -0.19935396406772   -0.98865577554143
H           1.30601250312235    0.74176977354439   -0.74922295982683
H           1.97697324250790   -0.63829763239633   -0.48219061616014
O          -1.92350871720457   -2.22233460361898   -1.24718737591931
H          -2.84385833861508   -1.95404293519249   -1.23635458353742
H          -1.47735637754331   -1.60912553820415   -1.91285726573647
N          -0.64538238871982   -1.58884859844760    0.95937725797235
H          -0.69861120129356   -0.52986006756013    0.99965480169498
H          -1.11763397443877   -1.90641394879062    0.05178898883807
H           0.36469396740891   -1.82591151607229    0.97958427591819
H          -1.11568973774807   -1.98858065969829    1.76493409948724
