    26
        -50.46452980  Gyration_radius:  2.57966782002 Dipole_moment: 2.012
 S          -1.57174896152460    0.46900601209708   -1.72306899360853
O          -2.21288291930335   -0.82958205647788   -1.74432229155306
O          -1.98094486543449    1.28982941744343   -0.59949940550464
O          -0.11550612490297    0.40389064060816   -1.82392613031650
O          -2.04270264421820    1.21360509417142   -3.04264476492121
H          -2.96809370354282    0.99556602346290   -3.08281400283612
O           3.21833427038058    1.18869087719968    0.98435940086711
H           3.78021441360460    0.78349186165639    0.32113237767635
H           2.85857365410960    0.44065872103488    1.52445394446601
O           1.11893802061727   -1.63100137093860   -0.46597241021700
H           0.33661269395951   -2.15355056138454   -0.23927343644215
H           0.79480025950320   -0.95514676219378   -1.08484019616134
O          -1.03670045854219    0.13162715317296    1.58576559342662
H          -1.62266511034002    0.59243356710239    0.95175198306926
H          -1.10802135256879   -0.80371014049064    1.32264235007719
O           1.81952300997619   -0.79901490126489    1.98933145244168
H           1.63767892116100   -1.19841446939636    1.10830929837381
H           0.95928195769455   -0.59164408831243    2.36503118206553
O          -1.45869789892340   -2.24984737082950    0.29696656449942
H          -1.78160787075275   -1.76124449999831   -0.50210315608953
H          -2.09872664656678   -2.94300939793102    0.46513664361574
N           0.71121483733837    1.70532274893232    0.28086344625202
H           0.38365984384268    2.66486398816288    0.32152452661115
H           1.74588702842570    1.62656916579767    0.48576241654104
H           0.16657511268238    1.12251604970140    0.96611346068334
H           0.46700452331103    1.28809431867262   -0.66067986301391
