    26
        -50.46501529  Gyration_radius:  2.55425153348 Dipole_moment: 4.875
 S          -0.82649929426199   -0.02157404735977   -2.12582362812881
O          -0.71912602267611    1.42015170492859   -2.27533317688968
O           0.46264280054531   -0.67174189241818   -2.33093393094537
O          -1.45343904496442   -0.41700007479993   -0.88271796600972
O          -1.77250439485296   -0.53535516073969   -3.28332194254254
H          -1.28183715159040   -0.30275102576250   -4.06477186981857
O           1.30186645281963   -1.55351940490926    1.68272230115923
H           0.78228189208081   -1.04257596114339    2.33913812125686
H           0.63240396345107   -2.11865143499039    1.23108300740648
O          -0.34555665623288   -0.06929455440679    3.17390942797314
H          -0.23892255483571    0.53517273011214    3.90827084308651
H          -0.81934106844603    0.43202388480580    2.46662214778676
O           0.67077532194043    2.42544084767064   -0.35751502695982
H           0.86596501284210    3.34127091367858   -0.56205856459565
H           0.11644845109293    2.08817254968261   -1.11600304987639
O          -1.40724882969092    1.32455640023016    1.17822203730912
H          -1.59810090846575    0.69012948659102    0.46352543262242
H          -0.71760537349077    1.89916055155328    0.81761575052399
O          -0.74372130032163   -2.64869620862858    0.37637930199759
H          -0.99833133118506   -1.87838372904051   -0.17337737501353
H          -1.48531642987308   -2.80159267676380    0.96550804764257
N           1.93463597136944   -0.00851533805393   -0.28287631272325
H           1.62338347130271    0.96500398123184   -0.12951175730975
H           1.69421763552608   -0.64255783593398    0.57950743389564
H           1.39261516080610   -0.36759725780725   -1.12365317465443
H           2.93031422713280   -0.04127643774011   -0.47460605719431
