    26
        -50.46473819  Gyration_radius:  2.44718986294 Dipole_moment: 3.935
 S           0.06768986849243   -1.68495025725269   -1.01102125828647
O           1.04753725622217   -0.66134967233327   -1.32865714523991
O           0.56735234267268   -2.63000858315769   -0.02551413624244
O          -1.21759398107686   -1.11743516163078   -0.63999326101792
O          -0.18744832187423   -2.50549338504027   -2.33517544161753
H           0.65182482028724   -2.93828295466264   -2.44700855018351
O           0.49446755181068    2.68238834746648    0.25509930032997
H          -0.43207364259200    2.41401401600334    0.28658840212657
H           0.70422359341392    2.65310795154793   -0.69865568809253
O          -1.94227059749429    1.42013819608979   -0.49758873966218
H          -2.85033457470001    1.46515497177461   -0.79993103057952
H          -1.65082744189073    0.49322284472284   -0.63871833828496
O           2.09917367297784    0.63452482240500    0.78528625598488
H           1.93412070949125    0.18919122440093   -0.06791498331881
H           1.59384857864606    1.48165620750051    0.71878657738610
O          -1.75105643061667   -0.39269476200957    1.88733390358252
H          -1.72697185803884   -0.82172736258155    1.00876656853519
H          -1.92381179607889    0.53652362047219    1.70445876635032
O           0.39282906585703    1.79904585768505   -2.31191668855771
H          -0.55763607413735    1.78394952984120   -2.15898078055535
H           0.70929286386277    0.90760487019305   -2.08327413766666
N           0.80039871429308   -1.14876594843870    2.11674114600142
H           0.75245834991359   -1.87457929811610    1.34903889546048
H          -0.17928269518666   -0.81029980109808    2.26643447721707
H           1.20305305092664   -1.53013846885168    2.96552867563299
H           1.40103699481500   -0.34479681493432    1.70028722069952
