    26
        -50.47128643  Gyration_radius:  2.44450391465 Dipole_moment: 1.912
 S          -0.96030723122465    0.42040668776066    1.57615561862660
O          -0.38214467954646    1.72830408174516    1.31306838933514
O          -1.66119100213364   -0.11998325622417    0.42850040982430
O           0.01357737926013   -0.50519850715934    2.12756777954988
O          -2.05385483318893    0.64480512651345    2.69534733863681
H          -1.54069168259945    1.12059796159744    3.33854332056010
O           1.75730599397059    0.23065379379391   -1.65541068310310
H           2.17634824812781    0.14173930824840   -0.77081993658558
H           1.11396978204221   -0.51583952852556   -1.69132728874819
O           2.41485272473137   -0.22788192082423    0.89903443565375
H           2.59585598497939   -1.17302807237755    0.91731317778145
H           1.59277138357183   -0.12275158558686    1.41008022278259
O          -2.17677872192771    0.78810447901762   -2.03538458678576
H          -2.24658657088136    0.47800090194592   -1.11149970522459
H          -1.91581168762116    0.01197166263371   -2.53959573280304
O           0.83996098095592   -2.79468584188749    1.00220352869356
H           0.43711264808218   -3.55504117178882    1.42283023107672
H           0.50387706388152   -2.00740306298156    1.47840795358158
O          -0.15201224220744   -1.58811009094619   -1.26260878855082
H           0.29247062933910   -2.22083885872302   -0.67383610480429
H          -0.75728784051398   -1.10480368833966   -0.67025127153819
N           0.02252591856785    2.10565900678945   -1.25281245731646
H           0.82028604481045    1.40811577001740   -1.49028921481711
H          -0.85603069040418    1.75193379680442   -1.70314467440981
H          -0.12199486420251    2.05442237770333   -0.20822401289730
H           0.24377724413074    3.05085063079385   -1.54384793850211
