    26
        -50.46637060  Gyration_radius:  2.58529615118 Dipole_moment: 2.458
 S          -0.33433527904045   -0.72132313844697   -2.03672721908301
O          -0.08064330736726    0.71806549151725   -2.08039393561130
O           0.71668981871634   -1.41636215928789   -1.30981303855549
O          -1.66298495546203   -1.02900241361518   -1.56689984528635
O          -0.24266218903223   -1.24488605078810   -3.53086549761310
H           0.69471426583511   -1.29890468207559   -3.69390249171640
O           1.48829337015998    0.28693384442851    2.97025791345175
H           1.20901198835843    1.16704864850442    2.61417185739680
H           2.43628855006383    0.24032150281419    2.83658133349060
O           0.71692567593252    2.38897230124919    1.55189106623324
H           1.25869427073040    2.15951341837154    0.76857193565394
H          -0.19606345574762    2.33118487242586    1.24987966667219
O           2.01179840830268    1.54495146985829   -0.67265612163293
H           1.28014668785796    1.18314657787659   -1.21677043601087
H           2.43013304912418    2.22040001084626   -1.20872030138593
O          -2.09108168343553   -2.53596422091366    0.59524659390879
H          -2.13300401832622   -3.45730507788193    0.33709156631463
H          -2.04751102233187   -2.02238018204507   -0.23959725500993
O          -1.49812290607231    1.29349260823371    0.06236003812283
H          -1.01578167905171    1.22611798994767   -0.79184329678875
H          -2.37231940540115    0.94089002265473   -0.12252995670222
N          -0.10124457404818   -0.80389450850693    1.12131719089147
H          -0.77013181935460   -1.56526268162813    1.32405040254757
H           0.41676902177567   -1.08191548331219    0.25208745448412
H          -0.65649467773794    0.04414928777328    0.87158705662297
H           0.54291587561906   -0.56798745795139    1.91562531964724
