    26
        -50.46017949  Gyration_radius:  2.70174456676 Dipole_moment: 2.942
 S           2.24726294540656   -1.24833727039769   -0.60239383418500
O           1.20277131859860   -2.26829934638189   -0.56265169255487
O           2.30139018338073   -0.57436534475819   -1.88330055806979
O           2.16606237615348   -0.33640531787209    0.52701554532380
O           3.62579425800092   -2.01916857757926   -0.43215860497041
H           3.69467620413939   -2.50173703837171   -1.25017628055859
O          -0.80752192005669    1.50352019120535   -1.33494187732180
H          -1.01083681422296    1.69345484313814   -2.25147438809304
H           0.16487076511178    1.71792092627898   -1.22243953398173
O          -3.52101353551664   -0.62282517029290    0.63602479235692
H          -3.13740114112840    0.24337703483463    0.89211448183420
H          -4.46395016543635   -0.55707524130003    0.78411012189296
O           0.19081527072991    0.17291134855329    2.14325176660271
H           0.36965875931988   -0.25309954455158    2.98264462065396
H           1.00425780565941    0.04261413565260    1.59406391589365
O          -2.10119238306135    1.63927316934727    1.16344597244499
H          -1.73957016240437    1.84812011624579    0.28964876065903
H          -1.34133417394922    1.39448657477777    1.70626588034246
O           1.75456827044260    1.85019395290069   -1.08845720204126
H           2.01909696788619    1.67232511683372   -0.17930254108534
H           2.03138995310307    1.03173937976410   -1.55993960661356
N          -0.94451950237846   -0.90769167800913   -0.08571149492405
H          -0.93177041736901   -0.07167105097871   -0.70890314993058
H          -0.70138617775445   -0.57071716103317    0.86797756119038
H          -1.89408357369193   -1.29298843230295   -0.05807957031574
H          -0.17803512096607   -1.58555562570133   -0.36663309455451
