    26
        -50.47138578  Gyration_radius:  2.40927567656 Dipole_moment: 3.027
 S           0.46605762767666   -0.92427611682351   -1.30422668245983
O          -0.48429755930256    0.18139275782679   -1.39625273750552
O           1.44214716115292   -0.68405416476611   -0.24138581803215
O          -0.21251191209171   -2.19305266404075   -1.14374880278513
O           1.25666691897524   -0.97331042698463   -2.65207504770571
H           1.83040337776037   -0.18816962105799   -2.61231543609852
O           2.79474039394658    1.00433510886889   -1.65078081993604
H           2.40505773665026    0.44715894633103   -0.93793970604435
H           3.74370694418276    0.86792989883345   -1.61932513901350
O           0.48939167309763   -0.68846451775476    2.25345141906363
H           0.13056738330461    0.23694156235703    2.28874087420565
H           1.03498400038879   -0.70523307681715    1.44214291157139
O           0.55521277233212    2.45619040451023   -0.42237885755037
H           1.46445943146151    2.45600153797657   -0.73400891894280
H           0.13760001546502    1.69144070957004   -0.86099484327747
O          -2.55369006197245    0.35402895945512    0.18411603093492
H          -1.79528768137266    0.31992155283146   -0.45259949035604
H          -3.28630897199079    0.73740913773174   -0.30012906572719
O          -0.65495986343600    1.65683352700873    1.88577406681500
H          -0.13246853543344    2.09311159971222    1.18558664182730
H          -1.47033092938284    1.37745238207773    1.44808980744926
N          -1.46087676975699   -1.93207407547299    1.14283400957001
H          -0.66198619673507   -1.47660425870736    1.74805739781243
H          -2.15039415755352   -1.19030150916587    0.93412242492377
H          -1.00116272270381   -2.18913324558367    0.22417696255086
H          -1.88672007465435   -2.73547442792334    1.59106878870558
