    26
        -50.46115788  Gyration_radius:  2.53916690822 Dipole_moment: 1.545
 S          -1.34883707384868   -1.19126023625881   -0.98091624415640
O          -1.46907551705260   -0.94720741936329    0.44952789106454
O          -0.69452348532822   -0.09463025378380   -1.66361483760308
O          -0.77627536946644   -2.47969403357929   -1.30820087950881
O          -2.85741349258412   -1.22927180659004   -1.50064808451495
H          -2.78388843187370   -1.61844878153158   -2.36665070551757
O           1.46200370017160   -1.75790572977411   -0.22782056368180
H           1.97648010936716   -2.56842531435763   -0.26307729645444
H           0.58340883920769   -1.99073223960614   -0.61665476091821
O           2.29031387300437    0.06710783430705    1.70782689320544
H           1.98422984796893   -0.72218330072465    1.23066273986308
H           2.83705570202240    0.54147533901924    1.07303607034048
O           0.37659720008018    2.21964900722756   -0.94210173577960
H          -0.15499803750576    1.51148842373163   -1.36039067189032
H           1.28981589190518    1.89372196287329   -1.03863019286774
O          -2.88576317720467    0.86842264703314    1.97480805965257
H          -3.83730029921093    0.88563226017797    1.86910192438576
H          -2.57052239829083    0.11151149208369    1.45407399704456
O           2.56308877402389    0.57730416551407   -1.19958371213461
H           2.08942630133425   -0.24079494492723   -0.95407493885380
H           2.67656515773819    0.53766348606587   -2.15036645474230
N          -0.14503628968765    1.14755243752379    1.39215495766643
H           0.02130855416280    1.76644038831266    0.54127323294233
H          -0.62063711244523    0.28250109418093    1.02513935089867
H           0.77413452220114    0.85922733796532    1.78957196000089
H          -0.78015777869121    1.57085617448295    2.06555399156226
