    26
        -50.46936554  Gyration_radius:  2.43001796414 Dipole_moment: 1.249
 S           0.10609250903026    1.74269158179166    0.67542419609045
O           1.16355906235641    1.72260316438204   -0.33057944487334
O          -1.17607610472706    1.39702705376494    0.07481627346535
O           0.41779426372928    0.95787938023533    1.84330633225516
O          -0.02049526965269    3.24086361838264    1.15956190110417
H          -0.24068170230851    3.69842106251191    0.35497803360373
O           0.57890392027592   -2.25231709769353    0.00269720493993
H           1.38712158371488   -1.71333599813689    0.15678727452119
H           0.05024119531393   -2.16245476908594    0.81467791964675
O           1.28388616029322    0.65777151217495   -2.78421070488759
H           2.13808856782693    0.22097597677330   -2.80623766893509
H           1.28233114969281    1.18833905851457   -1.96143335866612
O          -0.88769042769466   -1.31084871618777    2.10478802482401
H          -0.97703016299125   -1.48962490896074    3.04201418695966
H          -0.44587887720499   -0.43289632117061    2.03254268089735
O          -2.92339334874468   -0.84045223249278    0.16813456312720
H          -2.39563599884557   -1.23170855423696    0.87691251629572
H          -2.72482076678696    0.10139500200200    0.21326637415180
O           2.47573065756538   -0.42785509995590    0.52181329674030
H           2.08879104421091    0.39620307639027    0.16669573434681
H           2.43157952310447   -0.31578165260361    1.47486730385274
N          -0.73331987268262   -0.63788109813294   -1.58653970595089
H          -1.59928463029754   -1.01173329475562   -1.96561580777062
H          -0.07326238991422   -0.27586047912031   -2.30650569612698
H          -0.96975774414433    0.16300487361807   -0.94752788212025
H          -0.23679233106705   -1.38442512796220   -0.99463353738055
