    26
        -50.47063205  Gyration_radius:  2.38669072525 Dipole_moment: 3.285
 S           0.52378817186167    1.24128476156004    1.12424482577553
O           0.56548467472135    1.74569865720513   -0.23597492762386
O          -0.84340016100451    0.87974908987559    1.50695205770238
O           1.47025171066221    0.18579074655075    1.38473375199199
O           0.93344651275146    2.44562352460092    2.06108665335674
H           0.29734993724462    3.12094098167951    1.84872623888059
O          -2.12679386127486    1.56017230112382   -0.75824053549149
H          -1.36622227853990    1.98121273957515   -1.17269673328890
H          -1.82308715256191    1.37067400507814    0.14825449437030
O           0.72215327132217   -0.55413770344847   -1.60417955973775
H           0.57462524052090    0.29791749017845   -1.14694105002611
H           1.67312179942998   -0.52678749325039   -1.79098730623077
O           3.14432775533496    0.41604061266048   -0.76911309927706
H           3.02796956700657    1.34093465112598   -0.99580405061888
H           2.70006891037350    0.30370955630227    0.08814096248924
O          -2.03050374739930   -0.97879045080919   -1.61723531039334
H          -1.11777913489391   -0.97651516943256   -1.94262664546044
H          -2.24767847932383   -0.03270492520684   -1.45751295441495
O           0.97824122952480   -2.31392924707084    0.49229103564437
H           0.98950598538462   -1.96236225952666   -0.41770297758536
H           1.37115507137407   -1.59408039442109    1.01621040323116
N          -1.50881224290186   -1.61070115285625    0.86945792664704
H          -0.55453268208459   -2.08527814120902    0.80807094930989
H          -1.85174244379419   -1.46623778889888   -0.13680954836061
H          -2.17140769658895   -2.13146191294913    1.43214828316552
H          -1.32952994712497   -0.65676249840200    1.26550708593445
