    26
        -50.46402315  Gyration_radius:  2.50896174468 Dipole_moment: 2.562
 S           0.32666522349117   -0.03118441316587   -1.99254296198616
O          -0.83938718210046    0.70905419211647   -2.42659367242662
O           1.08430209929901    0.68684791662783   -0.97095718812333
O           0.04177601344504   -1.39329714584548   -1.57842571395635
O           1.26931221461516   -0.14126251868811   -3.25906454199200
H           1.11134655365465    0.69211515411981   -3.68942715899158
O           2.71037748399624   -0.21363530928447    1.03304431885516
H           2.49711728268095    0.44054260941735    1.72802663783000
H           2.38255925215375    0.18186993089677    0.20522494150582
O           1.50292830678456    1.58305729450544    2.68838275290605
H           0.63847954210496    1.42712878450086    2.27183636452770
H           1.69314308586787    2.51564419208408    2.57752547953554
O          -2.73994318412901    0.85450442440070   -0.62875512530595
H          -2.07674714988278    0.79520679452741   -1.35832247901449
H          -3.42544982781426    1.44870615206554   -0.93727610168847
O          -2.18524154299943   -1.82965378527916    0.08893455263979
H          -2.66170669067744   -0.99888934097898   -0.02856395113970
H          -1.62424754756884   -1.90701861012664   -0.69258934803313
O          -0.60076613990330    0.90536679851506    1.05282316740393
H           0.00652651073224    0.96415002914158    0.28286863925761
H          -1.49417961616263    0.97412490097574    0.67557543600967
N           0.47953179737966   -1.56521910643731    1.01891930121011
H          -0.16512362399635   -0.79110127900217    1.29116830189969
H           0.34735316648234   -1.66636350839274   -0.02162487720048
H           1.47617782899693   -1.21380922643494    1.16991159388289
H           0.24519615355071   -2.42688492033827    1.49990165238003
