    26
        -50.46836180  Gyration_radius:  2.43501295354 Dipole_moment: 3.020
 S           0.08358828535376   -1.20058798024321   -1.45093591492064
O          -0.77072680140544   -0.05247180477070   -1.20636264618880
O           1.34619833329545   -0.85978374943618   -2.06067816242168
O           0.22778721267362   -2.01949250240377   -0.25130201877572
O          -0.68092360475018   -2.09961840820371   -2.51036244657835
H           0.05473156338788   -2.57757486499888   -2.87592728959708
O           2.58303697085523    0.94559796759546   -0.50418660085989
H           2.34639627371497    0.24494000736039   -1.14142919057967
H           1.98675895476981    1.67847439771758   -0.72587936715353
O           1.54115101785911   -0.44475774317484    1.47380067110157
H           2.05572263421721    0.14195865932074    0.86570893372642
H           1.18957266756417   -1.14706114554761    0.89224745484077
O           0.40833802233102    2.29443913606294   -1.54246154842408
H           0.01849752844303    1.39173664110852   -1.51637446054509
H           0.58900506924865    2.47847645778957   -2.46525455036252
O          -1.79322845808587   -1.89787296501851    1.40532608597491
H          -1.74742002365318   -2.73493466147423    1.87066949186328
H          -1.10804408528122   -1.95078407172012    0.69525351747646
O          -1.70965424688731    1.98776161273815    0.31464872646657
H          -1.73726595256570    1.21291005831593   -0.27211299333433
H          -1.05313691114429    2.56463157993720   -0.09728858785276
N          -0.77231600504915    0.42869049942694    2.24997284614169
H          -1.31397929258524   -0.45044774877084    2.06831595103465
H          -0.85749515593567    0.72942998053023    3.21387025065204
H           0.24757713911397    0.17740222608874    1.99256127686312
H          -1.13417112548508    1.15893841177277    1.57818057144500
