    26
        -50.46599088  Gyration_radius:  2.46784923 Dipole_moment: 5.409
 S          -1.50705510078620    0.79174873013018   -0.47340913830081
O          -0.78517069874325    1.79665866490012    0.28039395343099
O          -1.07153231842345    0.73419864003830   -1.86160058939386
O          -1.50523519933932   -0.51881114030358    0.14616592349709
O          -3.02523413431396    1.24519897172076   -0.49073940770404
H          -2.99394790721126    2.08766375819871   -0.93225168271376
O           1.70499072242430    1.04747912584165    0.99253548444260
H           0.88059865153837    1.49407889763397    0.72767527846371
H           1.40243629190125    0.29401035522997    1.53608291938981
O           2.98474179516767    0.41536499346193   -1.17498542574688
H           2.58683868245684    0.63856725885874   -0.28474022479083
H           3.22177140647742    1.25680747552508   -1.56765012727907
O          -1.96430499805702    0.92823223750896    2.56200174511480
H          -2.64566418501529    0.41765275927601    2.12015037437877
H          -1.50453423496946    1.40759345375354    1.85560476027984
O           0.22603444742032   -0.88736723423484    2.18917905306983
H          -0.14115852521394   -0.46189830539125    2.97127740156336
H          -0.45931718657539   -0.74213803009018    1.50823512071169
O           0.11981447496672   -2.63150401795206   -0.20767113681710
H           0.58242708980608   -2.54612362219036    0.63371569495946
H          -0.68164616519732   -2.08681134141847   -0.10099212360440
N           0.92329537957380   -0.94560906104704   -2.10510877319621
H           0.10868164462059   -0.26540919323840   -2.07575865966906
H           1.02454740608618   -1.33703187313484   -3.03554640319221
H           1.80105033117352   -0.42558954751464   -1.81123280965055
H           0.71757234023699   -1.70696195555294   -1.40133119724664
