    26
        -50.46495603  Gyration_radius:  2.50824103111 Dipole_moment: 5.587
 S           0.86793703294572   -0.17215146008671    1.90177943835255
O          -0.37698061397373    0.46942956586408    2.29558704746104
O           0.56666716498009   -1.38967804331987    1.14202297743242
O           1.79264608316946    0.70263028120315    1.22906809519923
O           1.58315559670607   -0.64678430405642    3.23263842343477
H           0.91931030658972   -1.16028624092029    3.68323316058102
O          -1.32756513873510   -2.10133739198731   -2.29736153253602
H          -0.38169121697366   -2.29911444801916   -2.02999305967935
H          -1.27186881390129   -1.71100508972779   -3.17115972426178
O           0.10748443460456    2.82989052730620    1.27393360034644
H           1.04900487969488    2.63818370232542    1.17712144351405
H          -0.20994627995001    2.07363640027672    1.81346470283023
O          -0.96262581736083    1.99574920940963   -0.93522053906590
H          -0.54927681499454    2.39229188361127   -0.10977077637783
H          -1.56981757724565    2.65592021123790   -1.27213551156485
O           1.41941777089363    0.49584088054928   -1.44302549355794
H           1.71643362291632    0.57004834704891   -0.51790257955445
H           0.67083722254051    1.09841776691737   -1.52402842720798
O           1.12586002704634   -2.19373492678001   -1.44086092320654
H           1.06320663665399   -2.20366487367745   -0.47389408816058
H           1.38406374195965   -1.27204066562536   -1.64141901894296
N          -1.54445082751461   -0.54936789707149   -0.17729637807151
H          -1.60724331219295   -1.15821967667904   -1.04772639979368
H          -1.37245531784160    0.44383188105811   -0.45256148187145
H          -2.37788400563620   -0.61293434769708    0.39810194154173
H          -0.71421880436482   -0.89555128116519    0.38740511316703
