    26
        -50.47191649  Gyration_radius:  2.41603578981 Dipole_moment: 3.486
 S          -0.69910718886965   -1.70556357857404   -0.55227312650329
O           0.27429409619721   -2.28895874941711   -1.44070805309021
O          -0.15267682591256   -1.34723725817707    0.75128273578421
O          -1.41635392807687   -0.58284248838144   -1.14313768682737
O          -1.77252563827891   -2.83295280736830   -0.27390100601773
H          -1.72273509083974   -3.30147127690491   -1.09891194932463
O           2.17553310721352   -0.44084874121211   -1.79020672018543
H           1.55094284576962   -1.19212977270322   -1.81923420818666
H           2.56449414242841   -0.47483736161513   -0.90692401289147
O           2.30385253294352   -0.52215810319180    1.04225263258738
H           1.40385777823456   -0.91744182608108    0.92028620803267
H           2.73593368436614   -1.05133718216476    1.71403734666148
O           0.29223666120076    1.40117663985610   -1.57881838814406
H          -0.43138488290693    0.74313585513037   -1.51702623248145
H           1.07071892625703    0.85920532989098   -1.85264587364617
O          -1.12706654546413    0.74150514092914    2.11244082434937
H          -0.86658044326508   -0.14415784008852    1.78905892053510
H          -1.93930986923374    0.94921955960763    1.60679076524658
O          -3.01654304218107    1.01998839959490    0.23050118268692
H          -2.52351714243363    0.35726163896066   -0.29859951626571
H          -3.17778695377257    1.75875070408847   -0.35859060697593
N           0.91067159477715    1.82634540522471    0.90618980621738
H           1.64956171344472    1.12038642633989    1.06571310890702
H           0.64201056394339    1.75962961790362   -0.14228068440806
H           0.05250429467686    1.50804784269318    1.47411127733645
H           1.21897561981562    2.75728444567303    1.16059325661141
