    26
        -50.46462917  Gyration_radius:  2.55385235589 Dipole_moment: 4.335
 S          -0.83836897612481   -0.84848065249702   -1.98210535044586
O          -2.19773030420534   -0.65159168593151   -1.50161089380437
O          -0.04724820490978    0.36778807659125   -1.84983950578701
O          -0.18698991866185   -1.99519435525672   -1.38541098902201
O          -0.95972785298099   -1.14920844843767   -3.52937660951256
H          -1.53906718247956   -0.45248046746260   -3.82033569000384
O           1.21965222509713    2.29107313490257    1.79698761030716
H           0.90710225274303    2.82751078968885    2.52541710010650
H           0.47641738323173    2.24221217544540    1.14840412629334
O           2.17468279047682   -0.18998225387594    1.52952257353673
H           1.90235923599437    0.72286954580851    1.76233028835814
H           2.45769341917607   -0.12052699133915    0.58755258118706
O           2.49489930733920    0.22981232529522   -1.07831538800218
H           1.57467427529046    0.19590944193113   -1.41418071327221
H           2.78818664883727    1.13219329027547   -1.22067857612417
O          -2.29321018157965   -0.30642175346245    1.04542602203707
H          -3.20013628267443   -0.40385998965750    1.33951529511729
H          -2.30897933506028   -0.45288709782367    0.05793815174222
O          -0.84967210201158    1.95362364822093    0.16668120739727
H          -0.55654533831308    1.48558459839052   -0.63834941165783
H          -1.45919096780965    1.34404573061337    0.60442267366514
N           0.08180700789821   -1.65562381215529    1.19204147393059
H           0.13117000682972   -2.52158808157977    1.71788825960832
H           0.05778732625926   -1.86491415726918    0.15298221836272
H          -0.79303053958147   -1.14578410626606    1.40118995497211
H           0.96346530722455   -1.03407889415364    1.39190361100428
