    26
        -50.47380355  Gyration_radius:  2.4781387622 Dipole_moment: 4.017
 S          -0.98581057691243    0.68802728367334   -0.86034479492808
O          -1.65354241063610    1.12665869456805    0.37654749203494
O           0.40842120223395    1.11201013872065   -0.85910512195239
O          -1.12489234911341   -0.73715572060901   -1.07078212704744
O          -1.70580606430132    1.39345068419894   -2.05122618427902
H          -1.77460685647897    2.32802180817287   -1.77094593699993
O          -0.35148624607430   -2.47272342935321    0.81340068185001
H          -0.76964139799371   -2.00548424700078    0.06161788827224
H           0.59153937086577   -2.53085056988657    0.57611826478291
O           1.30264364557767   -0.96812179937136   -2.22903563781172
H           0.38910925782172   -1.28582537269733   -2.22651317416324
H           1.20471859725631   -0.05795607844252   -1.88927823787789
O          -2.01138132653222    3.55984985905706   -0.56422818356517
H          -1.87220854733549    2.79655712954400    0.03068531022267
H          -2.92118592931170    3.84096845461339   -0.44295160226243
O           2.24138377151400   -2.04252756732777   -0.02730332636443
H           2.99830978094006   -2.60153748045334   -0.20639869341921
H           1.94822923064650   -1.67659070696385   -0.90825539198136
O           1.96679128034096    0.41636937416266    1.19596335740379
H           1.52920993815310    0.84649950009371    0.43178882678151
H           2.26936106241528   -0.44417822962694    0.85392766011391
N          -0.34728326126284   -0.25499156753580    2.19583338633576
H           0.65202961580682    0.06900736262302    1.99020058158174
H          -0.97189445710835    0.33752327382246    1.58755211661108
H          -0.41772191000719   -1.25146828236844    1.81643751294923
H          -0.59428541052260   -0.18553250158740    3.17629531371028
