    26
        -50.46163606  Gyration_radius:  2.55703420944 Dipole_moment: 2.240
 S           1.27650989974602    0.19739258504524    1.93852280286545
O           2.37689927206985    0.84294338717663    1.24743388360985
O           0.05656364404882    1.00267395041796    1.90376596001704
O           1.00475938870042   -1.15769751776617    1.51925566102192
O           1.72317779867365    0.12378387788416    3.46372980588397
H           2.22162940193059    0.92845556610477    3.56503692122345
O           1.62347576517102   -1.74327347244917   -0.98142224327377
H           1.55299732944755   -1.65587261238521   -0.00734145216511
H           1.84091955890916   -0.84905038422231   -1.29058208731823
O           1.75710433477003    1.00553029869280   -1.26122492265232
H           1.97711994456333    0.99762133720619   -0.29432478404728
H           2.40000758125120    1.58461515461926   -1.67394603735287
O          -2.69803546330931    1.68327457658722   -0.52428954322074
H          -2.30914163845530    2.43430111595433   -0.07092420873345
H          -2.07973590112794    1.46824353597111   -1.26849328442785
O          -0.93094478397693   -1.87328107687993   -1.31862560831120
H           0.07354044372011   -1.87739017282993   -1.23490466914002
H          -1.18282169231244   -2.77798472240935   -1.50554582007497
O          -0.84269024141445    0.81323550139588   -2.18935698074232
H          -0.95669416192455   -0.14571922078579   -2.13959055759270
H           0.06156770632863    0.98079796585635   -1.87271865114177
N          -1.80467726694022   -0.42004481823592    0.80768067399720
H          -0.99890525476035    0.07862953860887    1.30599094279095
H          -2.36871479165368   -0.92892511958023    1.47867280745611
H          -2.34780170378446    0.35208344448457    0.32656813751984
H          -1.42610917940920   -1.06434274844078    0.07663321351843
