    26
        -50.47095837  Gyration_radius:  2.42171104678 Dipole_moment: 3.082
 S          -0.17752460908477    0.52670566329404    1.78162192677777
O          -1.20344991572737    0.21245846979002    0.80629925017465
O           0.41293552655559   -0.64001447459138    2.39391567561785
O           0.83147881389224    1.43367295189958    1.23520207974711
O          -0.91118573695832    1.32880486076082    2.93063975306040
H          -0.24678567211611    1.35932050234829    3.61067370882024
O           1.34687672459006   -2.12389660174633    0.39003683297131
H           1.17365851315335   -1.68402509831308    1.24735526652502
H           0.47277477397697   -2.47610730685340    0.14221861619146
O          -1.68139359157095   -0.54234172444509   -1.80987743026803
H          -1.63492618814634   -0.15551650597978   -0.92159318570827
H          -1.72975084607729   -1.49081726272084   -1.66365873864937
O           0.35979457218174    0.98558860719750   -2.63275429743911
H          -0.39330773996240    0.36168388335596   -2.59047779946362
H           0.04112393035637    1.76826712371804   -2.13436251592995
O          -0.60298330537550    2.62115906410896   -0.71057230556554
H          -1.48837051429994    2.29173634388568   -0.53855542324512
H          -0.06462423180991    2.31725917066510    0.04239826433403
O          -1.35022006758220   -2.44182768714068    0.40646964255023
H          -1.57491636669802   -2.92701569764364    1.20175756552608
H          -1.36221115536340   -1.49527963281391    0.65394570173460
N           1.98096065366660    0.14946492715294   -0.78080942806036
H           1.37391167702777    0.43487769499241   -1.63148533109774
H           2.96665019014750    0.29039571837543   -0.97355333064668
H           1.66947432019266    0.74473440370562    0.02349338162489
H           1.79201023502252   -0.84928738297275   -0.47832787958952
