    26
        -50.46104530  Gyration_radius:  2.54428524558 Dipole_moment: 1.367
 S          -0.12635630127541   -1.74233603452338   -1.07413330423527
O          -1.16666493601188   -1.39866035944737   -0.10451295475625
O          -0.52362848855441   -1.45555234625338   -2.43830198755427
O           1.14814245931045   -1.18458126329859   -0.69454890199096
O           0.01318025194377   -3.33017798243813   -1.00881331548150
H          -0.45467338089415   -3.60134902788356   -1.79249164066999
O           1.89198501850871    2.00130706223869   -0.84570389678431
H           1.12271982717709    1.55964032309682   -1.25381122662837
H           2.65292307726472    1.71232898710662   -1.35192321764811
O           2.08863967996147    0.30027411231229    1.29763186517786
H           1.93312766563360   -0.43006732028986    0.66627646808461
H           2.19589376430593    1.07305089588930    0.71346826590633
O          -0.45457763527783    1.08975112197073   -1.98841169482063
H          -0.69947988196649    1.46207926561897   -2.83929792720398
H          -0.48763507749519    0.10928258303375   -2.11300823062638
O          -1.71989970388569   -1.87235616365633    2.56583289148190
H          -1.65779177694353   -2.78749417868288    2.84106631051600
H          -1.65296688966033   -1.87482818473480    1.59690766724257
O          -0.79968768372462    2.74059424926226    0.21230363841059
H          -0.91721221992597    2.20744068062492   -0.59208526772089
H           0.09542166135785    3.08883678905675    0.14836066409875
N          -0.50721968409135    0.48484726804468    1.63969458987618
H          -0.77575459625065    1.43818341388339    1.31432616227221
H          -0.78409158692888   -0.20705549612360    0.89442714708026
H           0.55348600753498    0.42589389864251    1.70767026336883
H          -0.96787957008362    0.19094769656218    2.49907766261004
