    26
        -50.47395399  Gyration_radius:  2.40835055146 Dipole_moment: 3.048
 S          -0.96236690505121   -1.28559118562963   -0.72161132997656
O          -0.27321441289229   -0.32479529184022   -1.57308345293628
O          -0.28164700121818   -1.41240944852541    0.57283023019650
O          -2.36395727424099   -0.96940768857908   -0.56201046014715
O          -0.86530249394278   -2.68845913163904   -1.41581892288529
H           0.07194675183098   -2.92602534272085   -1.34006900932483
O           1.62096258998608    1.85544447443270    0.71839825929786
H           2.39003800164696    2.40885445792519    0.85978153211699
H           1.92923953351960    1.09087762537283    0.16655590852207
O           1.63968635989215   -2.86145315398034   -0.33386948944205
H           1.83055250448293   -3.63555034995247    0.19905837962216
H           1.00667807321374   -2.30889541985686    0.18485930342655
O           2.27708371236664   -0.12041183479217   -0.90104650041742
H           2.50155078495709   -1.02749741940662   -0.66683990135415
H           1.37595200778892   -0.18118836855490   -1.28350289252188
O          -0.33329577439917    0.65146674494419    2.25507886149400
H          -0.28112433682747   -0.21424858429343    1.80033866700001
H           0.41726019474555    1.15704358901239    1.89742673861836
O          -0.47751623309927    2.29505905982538   -1.03662904776364
H           0.30319572185863    2.34565086381840   -0.45564969508168
H          -0.40422023413818    1.41810571901529   -1.46361836603321
N          -2.26089246552224    1.36675394340438    0.63289806045019
H          -1.67505229167392    1.91896582452016   -0.06885239450015
H          -2.46822930547005    0.43904070578209    0.17257598127401
H          -1.60933269879790    1.15960573566755    1.45202133323343
H          -3.10799479902150    1.84906446605171    0.91077822712574
