    26
        -50.46706870  Gyration_radius:  2.60979223274 Dipole_moment: 3.756
 S          -0.64146768913033   -1.25298977001180   -1.13776196401650
O           0.10612271895338    0.01916565406312   -1.08481855695713
O           0.21760080115176   -2.34189855377703   -0.68747543273938
O          -1.87536192883061   -1.15955189027298   -0.39796808873734
O          -0.99662597659308   -1.49413143353517   -2.63912296687319
H          -0.11396780987287   -1.59282042523206   -3.05022610368194
O           0.40359452163305   -2.09283844587384    1.93602927471268
H          -0.27207028019059   -2.67610536000816    2.28573657038222
H           0.41241505309494   -2.25947289935914    0.96517316857181
O           1.63573046125697   -1.63358882123050   -2.82153315900822
H           1.41789295073878   -2.11626787689671   -2.00422794629896
H           1.82331960732250   -0.73277684634959   -2.54196204255878
O          -2.68591288075529    0.70728824912951    1.27966021347325
H          -3.44528589912487    0.36758764982061    1.75519113542390
H          -2.49802287283871    0.05263937825449    0.56946755965666
O           1.57450738456201    2.69916086750322    1.51727274145344
H           1.31579360274273    2.81369739981713    0.57576850514065
H           2.53242045343677    2.70203857735933    1.53424033726099
O           0.73966133195327    2.63751122119856   -1.04818951310187
H           0.54764305197949    1.69099010195338   -1.18092722302730
H          -0.07691566880565    3.10033087010598   -1.24473277800768
N          -0.01556845475082    0.52348194274917    1.51816785827780
H          -1.01471668606457    0.75083004587410    1.69097797928791
H           0.22561329329068   -0.39314079224178    1.94897708309885
H           0.06802653983690    0.37362676694708    0.47960831118648
H           0.61557435499214    1.30723438001252    1.78267502708263
