    26
        -50.46662475  Gyration_radius:  2.47242716066 Dipole_moment: 5.602
 S          -0.10858036458873   -0.68713571917891   -2.07776621954329
O           0.20419005320781    0.42833221435595   -2.93009008760350
O           0.93549760949306   -0.96634279014742   -1.07920947942590
O          -1.41336064369282   -0.65986972652031   -1.45729112597031
O          -0.08857067612898   -1.96313852283823   -3.03633602232556
H           0.02270163884549   -1.55042105433170   -3.88635737139484
O           2.37491157977878    1.02525469518892   -0.09295723404331
H           3.19593942982197    1.13134265189271   -0.57453331805863
H           1.89982242264107    0.27255175399611   -0.51112913555246
O           1.12536416910723    0.68184912238726    2.36694410959994
H           1.71070200279973    0.96803567150908    1.64753177024996
H           0.27720976905177    1.18394051112217    2.23082670597187
O          -0.11959191612871    2.07673896315235   -0.82683563607454
H          -0.16158512966358    1.58173602886208   -1.65932446714309
H           0.80975459558311    2.05181828368147   -0.55937036282076
O          -2.38319130419094   -0.82848890559988    0.93267779074184
H          -3.30349493144862   -1.08747192722655    0.87354002529683
H          -2.07003227259578   -0.71479908656077   -0.00159771109476
O          -1.19993935808682    1.64810891275178    1.61713146111573
H          -0.94792932427112    1.93246493013568    0.71679677718125
H          -1.77350987548952    0.88003864302362    1.48905607439107
N           0.20100099763720   -1.51462254416259    1.37886253764843
H          -0.82962074889357   -1.43006290399753    1.41646345769299
H           0.51982814026638   -2.39821373824486    1.75868922589314
H           0.48691566520037   -1.40582907901643    0.36527636764385
H           0.63556848174540   -0.65581635423398    1.89900187762388
