    26
        -50.47016632  Gyration_radius:  2.51326700186 Dipole_moment: 2.299
 S          -1.28338311994999    1.26689902913353    0.43679714224425
O          -1.70134415405312    0.79698447120562   -0.87836762603413
O          -1.27593068957063    0.16087288412912    1.39332551952340
O          -0.04409790248453    1.99865869525696    0.41625054942542
O          -2.40211382374302    2.26512210284618    0.93531806971666
H          -3.16354501178711    1.70119739809463    1.02790221305352
O          -1.23174025430632   -1.68086319097964   -1.98922912849643
H          -1.62937481400273   -0.88816701144897   -1.58860577959949
H          -0.83159034611561   -1.36531202576786   -2.80503500641563
O           1.08675361498913    0.47154958056965    2.64921941226830
H           1.42917913272907    1.21932546018471    2.15248049557457
H           0.15861985930018    0.39062136198310    2.36489530024518
O          -0.12358336705466    0.92764997917509   -3.01631522687034
H          -0.75435516679082    0.95918813871647   -2.26476989861981
H          -0.19373861603688    1.77311012392498   -3.46124191938709
O           1.91122123474023   -2.07634843174425    2.22736245504862
H           1.75983368754296   -1.13394789645517    2.45782450007385
H           1.73576512879292   -2.57580740350901    3.02542478893899
O           1.72224761255239    0.64121787770567   -1.03993670623661
H           1.30086818617749    0.70260655253010   -1.91720075971827
H           1.24494158428022    1.29614426044199   -0.49423264587401
N           0.46250995872874   -1.40168164181350    0.07163046285525
H           1.09539614000719   -0.67140764277955   -0.37327886976176
H          -0.03841589309230   -1.90448557080623   -0.68382490342424
H           1.02032968857427   -1.98465803297064    0.72262827852334
H          -0.25445265948297   -0.88846905759962    0.63097927294723
