    26
        -50.46318815  Gyration_radius:  2.62008600109 Dipole_moment: 4.845
 S          -0.07443736421356   -0.87609699246757   -2.11327153596434
O          -0.89742275704561    0.20131359064260   -1.53839018615098
O           1.33117318974756   -0.65942384150868   -1.83439424931960
O          -0.57622949160512   -2.17128195342144   -1.73478341252939
O          -0.21193288999656   -0.73801533743931   -3.68973608805717
H           0.59506601807406   -0.28484599838461   -3.91436499601599
O           1.74706301776183   -0.72548292034480    0.76949495360060
H           1.74284361035977   -0.78917680225991   -0.21194099359848
H           1.90981847965264    0.21252604744070    0.96296429659349
O          -0.68054999342973    1.46849920414831    2.74794655263618
H          -0.40149068825508    1.36143599960437    3.65819152214551
H           0.10855982478623    1.75200619280996    2.24788960562424
O           1.51822841420301    2.02212972560104    1.19620749928146
H           1.09016346058142    2.18991020071684    0.31586505888603
H           2.24157248918814    2.64681792672440    1.26196601092405
O          -1.89965092487917   -3.02470762406053    0.39889965403831
H          -1.50750469201953   -3.87215292962776    0.61555803402967
H          -1.52741582467930   -2.78107191131001   -0.47750010227895
O           0.29484404995087    2.47214661843231   -1.09340898063168
H          -0.45009037226973    3.07327724448001   -1.02988248718179
H          -0.09497860770793    1.59612962592312   -1.33508223310851
N          -0.87512402190364   -0.61584814132550    0.98508068055111
H          -1.05541466755652   -0.22308683359288    0.03178807855659
H          -1.38906172330458   -1.51666312639937    1.04762499999542
H           0.17435435259664   -0.79162403347978    1.01614427886599
H          -1.11238289803453    0.07328608910563    1.71713402911024
