    26
        -50.46828851  Gyration_radius:  2.42900789285 Dipole_moment: 1.505
 S           0.20663785305066   -1.41816225260832    1.12302969436813
O          -0.49558093423471   -2.15618333395568    0.07924739006192
O           1.48749463716773   -0.92234986098826    0.64723558636021
O          -0.60876221600687   -0.38897822105614    1.72374262740954
O           0.51977854070404   -2.46713437583729    2.26261701640977
H           1.00544642327292   -3.14203783887511    1.79935350654652
O           2.14353468302033    1.50326651246716    1.55578587710589
H           3.09546935943450    1.47200670452142    1.66498372012419
H           1.86869398775053    0.59543134917612    1.31428416687501
O          -1.00449943984853   -0.71547385280673   -2.06027582494578
H          -1.86847419699775   -1.01396691280144   -2.35461634988287
H          -0.74477278860312   -1.34293126623446   -1.34591353886504
O           1.06534741237566    2.57660208518180   -0.65435546406731
H           1.43124740544491    1.88233812972760   -1.24696209721788
H           1.50602978125641    2.41149575186329    0.20603812716362
O          -2.95301570961939   -0.95835825407794    0.21100527631823
H          -2.15979102864411   -1.51801814726326    0.20586288528492
H          -3.11243303488531   -0.76747957966829    1.13685208666617
O           1.68042924039526    0.24396392256854   -1.81198519485422
H           0.90293122888893   -0.09920232755393   -2.26522074085126
H           1.73503459882918   -0.24747340608234   -0.97288082479707
N          -1.15937197024351    1.31176256860846   -0.24355890829294
H          -1.22569262936153    0.63151049364812   -1.03453225849502
H          -2.02468402694896    1.83376807098668   -0.15412036486828
H          -0.99226687664671    0.74126439027742    0.62162940788765
H          -0.29873027958763    1.95433966077483   -0.40724579142627
