    26
        -50.47136079  Gyration_radius:  2.44316172534 Dipole_moment: 2.083
 S           0.53321834999468   -0.44110557294548   -1.95607596111868
O          -0.90556917909135   -0.17970587579147   -2.00970570675082
O           1.26795825668249    0.77619043204906   -1.63188300798413
O           0.86773890090223   -1.55758514389724   -1.11708246683725
O           0.95460667498879   -0.82179363083935   -3.43357471897146
H           0.69153769148842   -0.03885278662776   -3.90426126483306
O           1.48540967559226   -1.65015237162780    1.44469887516910
H           1.34249325289667   -1.84244600496993    0.49502950236289
H           1.90406640882467   -0.77220947291792    1.43485557488790
O           2.11208383338890    0.95395226200327    0.82154582218022
H           2.96919654083401    1.37979500408409    0.77503872516152
H           1.80534827728384    0.85785753863238   -0.11807073733693
O          -0.99457989045435    2.17299308437130   -0.80325119691926
H          -1.09800946641419    1.31333204081684   -1.26037232976891
H          -0.13144623822892    2.47966240886725   -1.09689541829944
O          -2.41771854624159   -1.37582963812134   -0.24336295342465
H          -1.80560743632735   -1.05713488979653   -0.94828914495135
H          -3.23345548752591   -0.88900692282254   -0.37760954097756
O          -0.38981598091438    1.64839907822618    1.74355257544675
H           0.56535951690100    1.54737767520047    1.58974363727607
H          -0.75010391019560    1.93134378224867    0.87114117117633
N          -0.97384248080624   -0.89866009390998    1.96457092432640
H          -0.83631172585468    0.16146430347884    1.96120929307343
H          -1.39173609924089   -1.21800313039859    2.83087960095199
H          -1.57130471742097   -1.15894290515183    1.14139398794424
H           0.00048378894930   -1.32093917021998    1.82677473827887
