    26
        -50.46617889  Gyration_radius:  2.60310654644 Dipole_moment: 3.594
 S           1.24443884543253   -0.14812931553471   -1.66795160312695
O           2.29441328236940   -0.53187141296621   -0.75035359448042
O           0.28503352549319   -1.23100415356736   -1.88004820909372
O           0.58632317261350    1.09762607041494   -1.31972157772667
O           1.94840833250227    0.10505154767136   -3.06602152609796
H           2.62028285735335   -0.56853010801327   -3.06932532474539
O           1.35130685264497   -1.17705433051822    1.65156148677152
H           0.73331820130863   -1.87716923277837    1.38869592594853
H           1.87310511555267   -0.98936575035938    0.84285620808698
O           0.25021671186555    3.27171451250786    2.56441715556514
H           0.48164642368939    3.95561993803922    1.93221443172635
H           0.95197590625105    3.23131266021504    3.21763372164029
O          -2.44772303958575   -0.49641509414759    0.58117060568550
H          -1.99682978420010   -1.35674949508921    0.57695229225297
H          -2.49913920933860   -0.23630377741906   -0.36492943670696
O          -0.59025178682022   -2.54214293097310    0.21373233521022
H          -0.76438795673021   -3.44506244051482   -0.05560606250393
H          -0.24415892683643   -2.08083740719112   -0.58849020090519
O          -1.97577942364016    0.18755080911848   -1.98088622088830
H          -1.55438317065368    1.05193503478861   -1.98571882139250
H          -1.22963140424086   -0.43372887962295   -2.08149602416969
N          -0.27045992211473    0.86442584338042    1.18803722506789
H           0.07185414446520    1.08590595169429    0.22420727610539
H           0.37890711360794    0.12131256446199    1.56694560343658
H          -0.26272648113011    1.70610130639502    1.77421369647301
H          -1.23575936986149    0.43580811001834    1.08791063787087
