    26
        -50.47037333  Gyration_radius:  2.43415437112 Dipole_moment: 2.977
 S          -0.24803493662485   -1.57302069338028   -0.96641370288694
O          -0.55762687014267   -2.03713188093669    0.38388137671667
O          -1.22918278989440   -0.58642474812350   -1.41476564298990
O           1.11134886072133   -1.12663992848304   -1.10012148617249
O          -0.42280498712626   -2.82431762858184   -1.91666789731983
H          -1.33050584680711   -3.07309304181014   -1.77643362744769
O           1.96219469913874    1.42535780613103   -1.50022671598982
H           1.69157138936694    0.50201955767606   -1.64087583698324
H           1.13241090186337    1.90385457727816   -1.36023129325641
O          -1.11730239964217    1.61482890096382    1.55325693169521
H          -0.93609206973656    1.98859222684502    0.67213375946169
H          -1.87766388661748    1.00943285054989    1.40957310376042
O          -0.73374520786175    1.98629225259073   -1.12358416349161
H          -0.90410578516902    1.02986822097490   -1.29209893481603
H          -1.32604602429844    2.46942353655151   -1.70190239418618
O          -2.75073016068859   -0.37283091334347    0.77297444497823
H          -2.34061474664165   -0.40569146626493   -0.11301700853538
H          -2.43747337496719   -1.17480496622915    1.20166132722526
O           2.99342607343627    0.21167847059036    0.61872052657370
H           2.75844475573826    0.87100551385836   -0.07757176021809
H           3.05787538677173   -0.61424660498665    0.12821601241724
N           0.70811083363411   -0.24748315350005    1.86562020695715
H           0.26284809803770   -1.03468325193804    1.32814591221941
H           1.64182767365007   -0.01194173805024    1.40600690640336
H           0.03771448212113    0.58625953392324    1.81033126738696
H           0.85415593171937   -0.51630342231386    2.83338870853504
