    26
        -50.46800575  Gyration_radius:  2.47571402198 Dipole_moment: 1.375
 S          -1.45992936783999   -0.09638408229565    0.06525115661066
O          -0.48944946832899    0.93293805638709    0.49605786311927
O          -1.27213401000090   -0.44758617472602   -1.32112089371717
O          -1.39911276372781   -1.25444569533480    0.93375409677628
O          -2.87911782691822    0.55585533615741    0.23143484169651
H          -2.85780182408415    1.33532068536512   -0.34475742028177
O           2.36943735169846   -1.73189655945260    2.08918609190768
H           3.12229177863653   -1.15110907213347    1.96270348596496
H           1.65986939795901   -1.17235870427970    2.49719637133667
O           0.31966981803036   -0.21172214830661    2.80724010717263
H           0.13415529254375    0.37742276014798    2.05358508217482
H          -0.41889959456896   -0.83130608856586    2.78808752866998
O          -1.70075800474900    2.69887293765395   -1.02284618827347
H          -1.09176267651532    2.18040470861112   -0.45833243224534
H          -1.77151596775979    3.56853368768739   -0.62342071664971
O           0.01876600051601    1.17529728510019   -2.99186619382249
H          -0.40913236838444    2.01045238224686   -2.78037810754157
H          -0.54921518185485    0.50006851654651   -2.57339019605379
O           1.63348379774016    0.32172137842889   -1.01373573543520
H           1.28904712409790    0.60733777209055   -1.88728544128953
H           1.00328866865737    0.71504401294368   -0.38181726495400
N           0.94998910104115   -2.04726226017026   -0.11994400012820
H           0.99491582808680   -2.87280336737686   -0.70757471093043
H           1.24221158489926   -1.16232960207360   -0.65330545373071
H          -0.02495332404353   -1.89235162104145    0.22930607174390
H           1.58665664486363   -2.10771413361965    0.72597208788234
