    26
        -50.47003173  Gyration_radius:  2.46506069792 Dipole_moment: 3.049
 S          -0.02084117863656   -1.58221483806945    1.29291888343559
O           0.29969075590770   -0.28889203874740    1.87925816805530
O          -0.56123080144005   -1.40182877439227   -0.06574476437736
O           1.04371323397380   -2.53852726178448    1.34533233962365
O          -1.22150764684330   -2.15920126484878    2.14686468954737
H          -1.87375486258285   -1.45344026249836    2.13628117575619
O           2.78727143319507   -1.15219955084554   -0.08291933016608
H           2.12510565278070   -1.70204082801528    0.38386034383479
H           3.58928666493275   -1.21826230290320    0.43872414824219
O          -0.27016638914889    0.02814883775373   -2.24471833718462
H          -0.31276101772369   -0.57180527872680   -2.99055242491656
H          -0.31317001181496   -0.53959915040300   -1.43995254150314
O           2.09018285343423    1.11912772264177   -1.35738533579815
H           2.45862584998147    0.31202384628645   -0.94419612382680
H           1.35658580106839    0.79912252635751   -1.91128386989152
O          -2.74351754557689   -0.26419034278470    0.65127008036435
H          -1.92725938854093   -0.71203865836561    0.30945524979880
H          -3.49041830758604   -0.74632232619950    0.29087388060859
O          -1.79145662264040    1.87723742268716   -0.79195042529850
H          -1.41284509727750    1.34946725627638   -1.51331514930017
H          -2.28996881949733    1.24867599367523   -0.23735857993000
N           0.49957563429339    1.94863169631659    0.55465089521616
H           1.23270060533969    1.74573678900961   -0.19518123814296
H          -0.43006401755721    2.08884237110254    0.07315041037762
H           0.42439642738230    1.06925401157373    1.14314970994149
H           0.75182678459751    2.74429443491075    1.12876813553524
