    26
        -50.46668685  Gyration_radius:  2.50897392543 Dipole_moment: 2.004
 S          -0.99574329130955   -0.96975136582066   -1.62894967517002
O          -2.29171354934033   -0.33223949455571   -1.67007726014235
O           0.09908310749802   -0.02001257679430   -1.86400796266693
O          -0.74358997782703   -1.77783505378938   -0.45932329349890
O          -0.96934050365154   -1.96488445992133   -2.87320920697040
H          -1.62246849225108   -1.58649748148837   -3.45330311963315
O           1.89135855637007    2.33801407028184    1.42731630360583
H           1.34129725320674    2.47927486657815    0.63393651522723
H           2.78804831430295    2.21632304603324    1.11049296025403
O           1.92863733662220   -1.13167315077250   -0.35979976295761
H           1.35841721812238   -0.70803601178661   -1.04003370834893
H           1.62537786794818   -2.04328882059910   -0.32929172019735
O           0.36671357375732    2.40429592302876   -0.88053580954606
H           0.48540402007441    3.00376362208173   -1.61842149038701
H           0.30082963748603    1.50087244344931   -1.27233617762423
O          -0.76853160211403   -2.26074941944366    2.21840584729794
H          -1.68021712469183   -2.38885662052485    2.48369270157701
H          -0.78415459984029   -2.20859927739210    1.24463086847026
O          -1.65548137253810    1.03781399955951    0.48639031248928
H          -1.26166205835101    1.82776061834524    0.09133578800577
H          -2.02007144347947    0.51877865028406   -0.25955455921175
N           0.53270934478238    0.01647375839010    1.63233441940452
H          -0.35834472705044    0.36319990212111    1.18033998700089
H           0.26173044522618   -0.69574436353233    2.32191984136743
H           1.11743886262861   -0.45157948134079    0.88916885695626
H           1.05427324441836    0.83317667760373    1.98887933469602
