    26
        -50.47172743  Gyration_radius:  2.52513676981 Dipole_moment: 1.006
 S           0.14674772586102   -1.74887096453084   -0.96154732023632
O          -1.05504451998431   -1.13267648058515   -1.50493884864017
O           1.31432032774307   -1.51512030180423   -1.78593620802232
O           0.34190177356053   -1.38800121287696    0.43360837735498
O          -0.08638433493098   -3.31449834969808   -0.98476092271893
H           0.25646190506628   -3.54281020583949   -1.84205931545497
O           2.15950291513425    0.43491490740340    1.37151004523712
H           1.64762409450371   -0.36855944027425    1.18160622700250
H           2.31970376353108    0.82438416395716    0.49828467221747
O           0.46598191871132    1.82256825891661    2.88498493521888
H           1.19804862954272    1.40517828837890    2.36679582491726
H           0.59544482655471    1.54755812000033    3.79323782578757
O           2.12386233622021    0.92546030558589   -1.36556603182075
H           1.87978678985059   -0.01779137878122   -1.53801361315647
H           2.82463174228100    1.13778850003039   -1.98433439175074
O          -3.19154249609998   -0.70053782103819    0.07363289670965
H          -2.45393532597519   -0.94607558804777   -0.52153360927701
H          -3.98523254854147   -0.73436696440809   -0.46133817291813
O          -0.55276247523166    1.51727580754589   -1.44557500011102
H          -0.80080643202300    0.61152331313961   -1.70788585619942
H           0.41894250069808    1.53869534231667   -1.47988558627609
N          -1.13161359765473    0.74834517755433    1.02356232739151
H          -0.96332582276541    1.28256823538667    0.12835906615790
H          -0.75288132705819    1.26243495201191    1.84643564055432
H          -2.12446741891152    0.49576620685289    1.07464072987826
H          -0.59496496007901   -0.14515288119432    0.90671627815407
