    26
        -50.47049406  Gyration_radius:  2.43025793908 Dipole_moment: 2.840
 S           0.28410983939349   -0.71603807463855   -1.69701577335868
O           0.10925776985363   -1.88955638516033   -0.86779800585887
O          -0.97367995220359    0.00670350820322   -1.86665987758627
O           1.36000158948422    0.15078828332722   -1.25349544118352
O           0.70564176616611   -1.22271570439431   -3.13325034760747
H           0.04635798436405   -1.88429989779362   -3.31155653747365
O           2.03706957692705    0.74858158443423    1.22499349941096
H           1.84650402692696    0.51157699457371    0.28916078572185
H           2.92290850849050    1.11446397551806    1.23425270513663
O           1.23074570829303   -1.88483683887526    1.67058301539053
H           1.08091457430666   -1.99860135504730    0.71812922288774
H           1.58774302913609   -0.99086704816516    1.76999973258310
O           0.14632976773085    2.53343860214756   -1.36250742537387
H           0.72475319825713    1.74894763663675   -1.40854192302798
H          -0.62721744076343    2.28341912650740   -1.87484706807537
O          -1.41374918114182   -2.11522996813515    1.45544114357152
H          -1.19354342177205   -2.43499193741006    0.56879819725419
H          -0.53441964545580   -2.08545835602266    1.89055583867473
O          -0.26533502091142    2.22035233612467    1.27704546252651
H           0.57185259297313    1.77399630925212    1.49772241223013
H          -0.12604951657874    2.56879026920521    0.36888832738416
N          -1.92282697367983    0.31635383038704    0.57246207769383
H          -2.89903891346881    0.58573112791023    0.63553453625666
H          -1.76438407919938   -0.62066919103628    1.05459982718158
H          -1.63658949493364    0.19590990345926   -0.43536477813272
H          -1.29735628218920    1.08421128898982    0.98287038376964
