    26
        -50.47501787  Gyration_radius:  2.45457814211 Dipole_moment: 5.108
 S           0.08102486835174   -0.28674008441123   -1.55711421279427
O          -0.99903808625881    0.63440435410222   -1.23608950898153
O           1.36154341296869    0.41056105138565   -1.63241215198589
O           0.12688631479842   -1.40624371164614   -0.62835388728065
O          -0.21195298223001   -0.90543214003450   -2.96218599096650
H          -0.24001611116804   -0.11149038750747   -3.52894004354989
O           2.02619228683032    1.31685945589319    0.69993201593184
H           2.80922005519774    1.86070928019085    0.59986436533682
H           1.81355628730538    0.97488582887410   -0.20884607039195
O           1.48722359644633   -1.19537009344228    1.66595127229562
H           1.12842590481074   -1.45223712646950    0.79181781417634
H           1.90226287895011   -0.33120713517403    1.50292032357139
O          -0.07849533946117    1.66542052108206   -3.56549485209395
H           0.76448756694801    1.58706624783638   -3.09776628696955
H          -0.73931600570215    1.74258876364590   -2.86293088376715
O          -2.06308642188346   -2.07891290339763    0.64966706734411
H          -1.33342776838170   -1.80379747356620    0.04599205616037
H          -2.06847815656071   -3.03754668871310    0.62992375655142
O          -0.67041968528757    1.72284372748008    1.13990732282822
H          -0.92227098210130    1.40027064181588    0.24405188196890
H           0.29757451719971    1.80527468289857    1.10492344271292
N          -0.91205344690067   -0.50692056810683    2.47950624618780
H          -1.52357165478734   -1.13646288318351    1.90775904702108
H          -1.19263806227609   -0.48059989943162    3.45261418284000
H           0.08751363271091   -0.85220966296598    2.34223987797364
H          -0.93114662953371    0.46428621283049    2.02306321589227
