    26
        -50.47016688  Gyration_radius:  2.51320044667 Dipole_moment: 2.289
 S          -0.21199936510126   -0.83172371424258    1.64510280580614
O          -0.26688697186079   -1.79620139829767    0.54732976205910
O           1.11606148762070   -0.23729188631990    1.73186464323167
O          -1.27197635928370    0.14047368632094    1.59068186885138
O          -0.41951518673115   -1.66917830580398    2.96886817223162
H           0.22794180930838   -2.36214297050670    2.88536750735919
O          -2.56749503567634   -1.15462482253280   -0.69832388503474
H          -2.82352070498320   -0.39395348987472   -0.17013101697380
H          -1.82022514855978   -1.55039106570321   -0.21479613697371
O          -0.62577609472912    2.00789310925620   -0.19177668925753
H          -1.04720065423094    1.45931055913251    0.49814898452120
H           0.14723169270367    2.40406781528375    0.25138022887666
O           1.54340308751900    2.36843939507703    1.40840793502664
H           1.39590270893937    1.42278926669052    1.62678191467299
H           1.43487308160661    2.85315394565999    2.22752493742709
O           2.84542986543017    0.29359249105323   -0.34709391739642
H           2.40315702592660   -0.06617260554787    0.44155002976432
H           2.98399616510151    1.22355743160821   -0.14409738276591
O          -1.44606630236785   -0.93223665402466   -3.15665201095188
H          -1.60736679742932   -1.75116696461817   -3.62626985627754
H          -1.99522843385014   -0.97249271082554   -2.34374115060962
N           0.41542950943347   -0.09378768542467   -1.41449404139419
H           0.19243212747640   -0.83758004236152   -0.71649449874863
H           1.44483765978033    0.02876060046995   -1.41587263155784
H          -0.01830973651731   -0.36075970083878   -2.31738369347840
H          -0.02912941950890    0.80766572637496   -1.06588186838206
