    26
        -50.46939083  Gyration_radius:  2.42811633086 Dipole_moment: 2.402
 S          -0.71423285346545   -1.37397216764810   -1.20517308652186
O          -1.99532903004813   -1.60058711377977   -0.57964690057766
O          -0.52580674901964    0.00116715572016   -1.65163880727367
O           0.39964179233516   -1.81601411467666   -0.37863239295472
O          -0.68876840388071   -2.25234145859856   -2.52082962772854
H          -1.11927649004694   -3.04457955744349   -2.21868997533993
O           2.89524541302880   -0.87624499219448    0.50972850406114
H           2.28343873442960   -1.51364974890165    0.12452555365951
H           2.83945094615600   -0.10611973098179   -0.06920793983883
O           0.82095206980315    2.11023740932912    0.94983523553511
H           1.35876884635278    1.91645870412481    0.16220247241242
H          -0.08229951663452    2.25576263883687    0.62273536720878
O           1.87446158677040    1.05542340218514   -1.34240453280738
H           2.18660766296401    1.35435512560823   -2.19729385220738
H           1.01599535177078    0.60184065305044   -1.50195376634458
O          -2.27411190543515   -0.19852112240863    1.66606449143688
H          -2.32900272021343   -0.82837550007500    0.91701529299939
H          -2.32069078932090    0.67322142809290    1.24330695932145
O          -1.70199753200543    1.81909408638181   -0.15772085485743
H          -1.32052492920380    1.13179963460503   -0.75254631886480
H          -2.28904959808612    2.34743940690705   -0.70024903150150
N           0.34732381137093   -0.33799954392693    1.84241108461885
H          -0.69864651091029   -0.31388144681369    2.01354221463640
H           0.49226447352419   -0.95853443994044    1.00895372940591
H           0.66332312103700    0.64468845721281    1.58656602968769
H           0.88226322872916   -0.69066715466484    2.62910015183400
