    26
        -50.46816154  Gyration_radius:  2.54201216365 Dipole_moment: 3.804
 S          -0.20567424254498   -1.77420149907568    0.86908777289424
O          -1.16565731207871   -2.00269138129882   -0.20309767223515
O           1.14697959687027   -2.08056544173049    0.45000388613740
O          -0.31355851189942   -0.44779722298879    1.45276797651821
O          -0.59609250456513   -2.78659144724316    2.02056952593858
H          -0.79340809548543   -3.58923391631114    1.54785629752774
O          -0.17293499424962    3.33923418222855   -0.13444369987989
H          -0.94265644855683    2.83089005874282    0.23942209695974
H          -0.00904086065774    4.05813790459398    0.47661752734268
O           3.25315245084986   -0.44878921863301    0.31691865611125
H           2.54859240026886   -1.13080693442297    0.36114559385582
H           3.84059288478709   -0.62780003492190    1.05179778074276
O           0.33128368105199   -0.88339473200236   -2.07640030050429
H           1.10770231735239   -1.44244844757129   -2.15688511971253
H          -0.26559593930987   -1.36514188611940   -1.46494057934128
O          -2.66140064081610    0.06575753743267   -1.11133306009339
H          -2.26964425384183   -0.74123015907659   -0.73130908851702
H          -2.24012708203282    0.18294594861424   -1.96561268566927
O          -1.97026134593087    1.72938055150656    0.91667715868195
H          -2.41643188254209    1.27403565497213    0.17659223632609
H          -1.48302143350292    1.02337698501311    1.36655703707890
N           1.07121689765357    0.99259318486088   -0.28975520967788
H           0.80290899992446    0.47079850250332   -1.15383827233562
H           0.77661218336555    1.99727464586500   -0.32936019968938
H           0.54984072448868    0.51924193026368    0.48844888165176
H           2.07662341140054    0.83702524479611   -0.11748653010961
