    26
        -50.46404552  Gyration_radius:  2.71255805562 Dipole_moment: 2.629
 S          -0.41488060041181   -0.63529961228217   -2.29546292827632
O          -1.75899484274476   -0.70706789723362   -1.74722223464756
O          -0.18230661235530    0.59004602812600   -3.03177809953842
O           0.60252186907141   -0.88544720707770   -1.28087638638268
O          -0.28336316766693   -1.82819967113954   -3.33026434074048
H          -0.94595401316235   -1.60395015147679   -3.97538512274849
O           1.95455061823057    1.12595303196438    2.46956225675889
H           1.79338415892037    0.18152497856384    2.71358020308501
H           2.88911573295691    1.18399786224946    2.26545782286994
O           1.49133695811368   -1.44516547780883    2.87258525378831
H           0.91737682719495   -1.76718811807380    2.13402951859628
H           1.11607912140169   -1.80907078469259    3.67525257961430
O          -0.13107992232780    2.80420023823449   -1.63375985495262
H          -0.22640496381918    2.01181173014170   -2.21755258268675
H           0.47485211430210    3.38969693550837   -2.09055051518417
O          -2.16852937626155   -0.12808821987329    0.73457359350974
H          -3.08955772277150    0.10489939375652    0.85704736791439
H          -2.07346103066111   -0.36917943455360   -0.22663645551323
O          -0.20810299081131   -2.16435242589507    0.96064930044503
H           0.14772392768504   -1.89783195011256    0.09340660705265
H          -1.01894214523108   -1.64957335618557    1.07004152848422
N           0.23150563325965    1.11766553238357    0.41341461427301
H           0.14340392299837    1.95691716314556   -0.19756392070004
H           0.53923306883149    0.32906620186198   -0.20692880783352
H           0.90452597957880    1.24485012429229    1.20794273589725
H          -0.70403255431472    0.84978508627618    0.76643786683804
