    26
        -50.46761465  Gyration_radius:  2.48112799782 Dipole_moment: 2.298
 S           1.20898382655352   -0.40180803621649   -1.57401169062122
O           0.78781239527396    0.92020681338374   -2.00495938051924
O           2.39384222457002   -0.38842697806640   -0.74917816329101
O           0.12254578163148   -1.17932897942287   -0.99201996497830
O           1.59599153621726   -1.19337487291855   -2.89873397808407
H           2.40116292014858   -0.76974511973645   -3.18024951792879
O           0.40504663852335    1.40965282461413    0.63323225394364
H          -0.47142161731780    1.80089151016029    0.58182497560961
H           0.69878945610866    1.29502241671838   -0.28172061622385
O           2.41150852336787    0.10048628536549    1.87803198865439
H           2.64850493968793   -0.09127133346663    0.94741680028325
H           1.92445458341584    0.93399620673364    1.81548733929240
O          -1.58723538005754    2.09634948605009   -1.62700091011038
H          -1.92376883929919    2.45762597357274   -2.44779325569802
H          -0.71024684362614    1.71298915663241   -1.83697501082692
O          -2.37375357151977   -0.23982236115772   -0.47688392689571
H          -2.29849554293127    0.65814329796102   -0.84831652775533
H          -1.55572393704248   -0.68592441415054   -0.76050810570830
O          -2.08555548025091   -0.32940946404340    2.12684651317758
H          -2.25747384183395   -0.21258182320945    1.15203163966377
H          -2.84310593706008   -0.80319870001148    2.47191000271147
N           0.29877867223750   -1.44078509227039    1.63642662012689
H          -0.58670594116318   -0.98679864791579    1.97855640284700
H           0.25526848282987   -1.42833997797254    0.58395919313306
H           1.15146810670723   -0.84528673681441    1.88971379825264
H           0.38932883482212   -2.38926145382038    1.98291351093961
