    26
        -50.47110170  Gyration_radius:  2.51887529853 Dipole_moment: 2.620
 S          -0.39559471597517   -0.75960945072159   -1.84759195962538
O           0.59685809718178   -1.14151565454595   -0.84015637075485
O          -1.70387974874454   -0.59039477272246   -1.22591784751030
O           0.01143843096749    0.36319243059659   -2.64672158184888
O          -0.51417693817893   -2.00141031221757   -2.81653702087063
H          -0.67046260763971   -2.71918156647980   -2.21141502225575
O           2.49134697831148    0.61954683461873    0.08288666510039
H           2.00459771493536   -0.11075585769106   -0.33424353135355
H           2.06409561431725    1.42061464207769   -0.25788933153453
O           2.05932345015386    0.22255610161812    2.67750433270108
H           2.32670805237623    0.46493762770571    1.75616522690804
H           2.75335153637485   -0.34537011709664    3.01359153680005
O           0.76472233191839    2.38826593862969   -1.19016685127306
H           0.92474980874876    3.15442501398228   -1.74358986684252
H           0.52201884576920    1.65156669058352   -1.80322082382657
O          -2.39810990579861   -1.97827403262055    0.94210058975483
H          -3.34830356562920   -1.92228404768968    1.05147100844510
H          -2.19790071476250   -1.51107965998710    0.10247558662073
O          -1.42874592265066    1.63441312034163    0.27952864876535
H          -0.69958593508744    2.11678857345670   -0.14652164875559
H          -1.72360676414206    0.97368735499838   -0.37367465122418
N          -0.28678780740343   -0.39168738526158    1.54447935383206
H          -1.01161296428347   -1.05235053037720    1.84808737155831
H           0.48992425381118   -0.23298873462081    2.21946621538503
H           0.11548223152056   -0.77178767677040    0.65110691467983
H          -0.74584975609341    0.51869545019106    1.26878303711873
