    26
        -50.47165506  Gyration_radius:  2.5160993283 Dipole_moment: 0.634
 S           0.35306111680777   -1.20614108119055   -1.58303121373423
O           0.26803671299754   -2.50458322770034   -0.94847878485500
O          -0.79667507616763   -0.36790196010532   -1.24555064022129
O           1.60550537079687   -0.51577807796746   -1.35775182005249
O           0.27122351308989   -1.46120797345115   -3.14257175077101
H          -0.47112228321629   -2.05224626035064   -3.20884109138771
O           1.78444713196603   -0.00326877934275    1.28624834497815
H           1.23760291305681   -0.73490973529060    1.62271888093718
H           2.00591564985361   -0.25582636835571    0.37186328480611
O          -2.24392594795646   -0.60803701439141    1.06442153932677
H          -1.95547663311121   -0.55994422992393    0.13804137690999
H          -1.56424629469668   -1.15004485601848    1.49434620866593
O           1.60935574510052    2.12238107618700   -1.89213205265794
H           2.27636131166474    2.34203774548669   -2.54295481520427
H           1.65207510094625    1.15222955861773   -1.77626915315588
O          -2.09821954287242    1.93123840194477    1.86230361948943
H          -2.10144805699140    1.94636555563801    2.81994508552539
H          -2.30801906337559    1.00200460637846    1.59850516108075
O           0.04531594807475   -2.09187371663761    1.60621590265246
H           0.11470186235748   -2.29958394264657    0.63927746293975
H           0.18747150434974   -2.92176494490914    2.06490461634152
N           0.02035843253588    1.68110853113326    0.23688779699805
H          -0.38016194404249    0.95661489123391   -0.40960029859170
H           0.47340595388835    2.38508330322923   -0.35081084948025
H          -0.73945671619859    2.04172734591760    0.85092440306480
H           0.75391329114309    1.17232113251463    0.80138878639333
