    26
        -50.46870637  Gyration_radius:  2.54240961413 Dipole_moment: 2.972
 S          -0.25967296627805   -0.02026754349344   -1.98063544941926
O          -0.82635606630836   -1.33352057808483   -1.70500515910111
O          -0.71172050269472    0.96308309610897   -0.99576183558384
O           1.17349502115702   -0.03337112948247   -2.12143110982019
O          -0.85845587537664    0.43782475280289   -3.37010976492261
H          -1.79631530690213    0.31041045440204   -3.26277591909651
O          -0.39412622018365    1.05856247752594    3.09352679849704
H          -0.50200298058203    1.90702947637278    3.52414316008679
H          -1.19597429871325    0.93782424242326    2.51704623109490
O           1.09146419383552   -2.05293231240333   -0.02871203326776
H           1.89656605967049   -2.11402824865100   -0.54802812299055
H           0.37698227232347   -1.90778706045378   -0.68458226939649
O          -2.28411612614752    0.76668568185235    1.28311433485918
H          -1.87350718714477    1.03211451263412    0.44601225766718
H          -2.43120406093903   -0.19384924585871    1.18075387403841
O          -2.15842361435608   -1.85057258308903    0.58974410096191
H          -1.51751221598448   -2.40728009774451    1.03714162726891
H          -1.80122998585582   -1.70413596701322   -0.30538825423528
O           3.06357411874707    1.20629571861485   -0.68881754973950
H           2.46217128148925    0.74046001376777   -1.30645137227483
H           3.40842239101225    1.95853355032337   -1.17097197774420
N           1.04231435350942    0.46811287244833    0.92758096784969
H           1.12450471800485   -0.56504854152068    0.79401460437461
H           0.34109434725386    0.78460522755802    0.21243954325329
H           0.68413027210942    0.71031203369944    1.88140346345534
H           1.94589837835954    0.90093918726368    0.68174984418388
