    26
        -50.46726179  Gyration_radius:  2.48526805178 Dipole_moment: 4.596
 S          -0.66395114772136   -0.44313614362604   -0.87750608020441
O          -0.61842453741425    1.01336642718557   -1.01741373954421
O           0.52857290431861   -0.91149229027841   -0.14353777972295
O          -1.87402193098613   -0.87933452076876   -0.21792951729737
O          -0.62520239070170   -1.07521410831493   -2.27927527903275
H           0.28893786118571   -0.87765452179160   -2.64818641056972
O           1.74057336719994    1.85812810962595   -1.94467506127911
H           0.80376078303233    1.73434135523238   -1.69408129117297
H           2.22136431190577    1.77387360136677   -1.10445837094302
O           2.03163463888427    1.17404671520177    0.72157889541957
H           1.31640769166241    1.73606962593573    1.03228525252260
H           1.60923223057472    0.37640208477299    0.35282621912453
O           1.66929830630751   -0.41457519707420   -3.23200210934323
H           1.57940404119530   -0.20740857352910   -4.16462915975849
H           1.83280650479247    0.45491562147283   -2.77033640946502
O          -2.41273548336352   -2.09983889820754    2.03807610346910
H          -2.50980971731287   -3.03410708924192    1.84668667176065
H          -2.38031727150256   -1.65005623126976    1.16070995259452
O          -0.94519129144046    1.67089811730639    1.46549370502955
H          -0.84432881662939    1.48156142985288    0.49533122732591
H          -1.86428867632067    1.92045793115176    1.57773388420598
N          -0.16259642476176   -0.73123799160374    2.32417621761889
H          -0.48875361223342    0.26269705903154    2.22709274206578
H           0.22272657027850   -0.94924898540536    1.34522210971492
H           0.54373506522766   -0.83418339919145    3.04490847792164
H          -0.99883298617740   -1.34927012782342    2.46190974955509
