    26
        -50.47288970  Gyration_radius:  2.42602573583 Dipole_moment: 2.385
 S          -0.26520083756432   -1.43062913729809   -0.95495771813135
O           0.21263751586525   -0.13625571983853   -1.41161394068175
O           0.80138329184228   -2.36977729432250   -0.70918686174567
O          -1.18406074768881   -1.29552734963615    0.16897523654608
O          -1.12051697392213   -2.04369015612400   -2.14653379738692
H          -0.64478908957585   -2.84863196215987   -2.31981215467844
O           0.37515494166884    2.29138611478098    1.28893971986563
H          -0.31165885450446    2.37038083985032    0.58279047408461
H           1.19996145355412    2.11699039749483    0.80661735601162
O           2.24491589215355   -1.23327537235199    1.24375789625811
H           2.58886160121196   -0.46240321039734    0.76457297769740
H           1.82232586401777   -1.79369548366748    0.56129093189749
O           2.28961641695274    1.05132609264027   -0.31446535338519
H           1.53726890845830    0.61129051165929   -0.77346096208266
H           2.83007472261926    1.44177363247520   -1.00281103993315
O          -3.08925927070880    0.06152218173178   -1.14169685275543
H          -3.06259519526601   -0.32664693479686   -2.01804589127556
H          -2.49732074301580   -0.48415341164640   -0.59605584155419
O          -1.22795834069112    2.07484083849661   -0.81060564935682
H          -0.67870904302800    1.35960812686261   -1.17641858689207
H          -2.12039419334483    1.69579040655743   -0.80900896436466
N           0.04806828078158   -0.13021000526647    2.18807239518472
H           0.13266187961438    0.91424465852242    1.92855885251827
H          -0.59270221820353   -0.58326354208811    1.49428964383239
H           0.99095579305411   -0.58836485311584    2.01845761230435
H          -0.27872107427982   -0.26262935836201    3.13835051801995
