    26
        -50.46806860  Gyration_radius:  2.61580830153 Dipole_moment: 1.391
 S          -1.45622885829237    1.23026944017283    0.22167749900084
O          -1.73273740682179   -0.19481310494937    0.04045659460096
O          -0.84115040430350    1.50934387468188    1.50005453638628
O          -0.72118271565056    1.76759557618911   -0.90767955643272
O          -2.85918250022057    1.96607786169649    0.24521300419734
H          -3.08000872865920    1.91592473806169    1.16958006525678
O           1.18970443423575    0.65164586609043   -2.53815301364154
H           1.87232099558180    1.28129422084564   -2.28422692571048
H           0.35802958211309    1.06225659245296   -2.24679891332022
O           1.69945694969461    0.70714977394849    1.40796561488908
H           0.79882333277294    0.98682678970500    1.67086011760172
H           2.01290413853058    1.43416665216481    0.84002146870334
O          -1.92010209902303   -2.71144158204513    0.97647183511812
H          -2.64806182656846   -3.08921914552043    0.47964767800909
H          -1.90154676808671   -1.76432585763628    0.73988036388652
O           0.54562652683970   -3.56149529024926    0.29432854741886
H          -0.37886357804090   -3.36169242368180    0.56380046596412
H           0.99378661331637   -3.86282031011134    1.08611062988501
O           1.72321793534438    2.70327418136629   -0.45457912053622
H           1.69987775679194    3.60932365134943   -0.14442759819935
H           0.78772162805747    2.44163871248334   -0.60303554244636
N           0.78937895371740   -0.96535320071300   -0.42356114730853
H           0.90155908096780   -1.99279358811243   -0.30312111314702
H           1.09895212305880   -0.60315779256354   -1.34946411988415
H          -0.22322771535955   -0.73229153334795   -0.32129245252963
H           1.29093255999638   -0.42738410227413    0.34027109223722
