    26
        -50.47619399  Gyration_radius:  2.40288189217 Dipole_moment: 2.104
 S          -0.42199156494439   -1.60362780781524   -0.42598860515411
O          -1.10311388523379   -0.43925783832633   -0.95485387511802
O           0.53281897212383   -2.18652206176133   -1.34272894556226
O           0.15026102311591   -1.35936777509984    0.88945449807186
O          -1.55771168729034   -2.69990140557819   -0.21750076313812
H          -1.04625124376777   -3.49995791331380   -0.25850304795034
O          -1.15361084343148    0.58410338760706    2.16991571470862
H          -2.04140910286924    0.47448588793538    1.77810218463969
H          -0.66653041767090   -0.20983310013493    1.86966241852502
O           2.11010576993867   -0.18012430613996   -1.88252230972300
H           1.51062190668137   -0.95105725973501   -1.72536162285717
H           2.71224726792936   -0.45312556256237   -2.57726434486719
O           2.35659810312076    0.16127057174548    0.83519926875407
H           1.66815648123077   -0.51382887240321    0.99756472836084
H           2.53444033851747    0.09738069263642   -0.11804907506090
O           0.17397670676891    1.79188000666902   -1.64418484717100
H           0.98077768206977    1.32126733807189   -1.90884678283000
H          -0.47832515097148    1.07388907294985   -1.53272779603059
O          -3.20880823316739   -0.29910761443921    0.64898722754178
H          -2.53535044808966   -0.30968935074351   -0.05819552024288
H          -3.45533161198709   -1.21652412276005    0.78011064067145
N           0.58781957620085    2.12035941617418    0.94570847832152
H          -0.20882142263875    1.63613002815331    1.46681267423959
H           0.35606421486644    2.16171368886218   -0.08875597228499
H           0.78560824484969    3.03578612178765    1.33211713970745
H           1.41775931464176    1.46365880823257    1.02184852444168
