    26
        -50.47392069  Gyration_radius:  2.43982567897 Dipole_moment: 2.174
 S          -1.23061499949572    1.03424970208337    1.07274389832999
O          -1.50054231882521    0.82704516936475   -0.34181785561675
O          -0.65100735503162   -0.16027212478610    1.67177487064002
O          -0.47425457745571    2.23075241974998    1.36094036162826
O          -2.64346018708663    1.24160583023880    1.75522473714463
H          -2.39965405619146    1.80787077514454    2.47828402245604
O           1.28829142211298   -1.13716101337949   -1.93327592773707
H           1.15005020494782   -0.19304091509647   -2.18372339768584
H           1.65631476801224   -1.08336289782659   -1.02218511741790
O           1.80404636672631   -0.59439250057283    0.63616997642558
H           2.16109130675614    0.30183333652493    0.55712396732511
H           0.94590862598401   -0.47493961305740    1.08277854349118
O           0.61382302350592    1.43507514643370   -1.99440073901067
H          -0.23029181995313    1.35971590539860   -1.52026634965768
H           1.23199009811736    1.80879030043690   -1.34653557762833
O          -0.80808784646052   -2.76148952440669    1.19134797239089
H           0.09821400855136   -3.04561825911022    1.33463896281928
H          -0.85018656230328   -1.84740752668946    1.54314040623798
O           1.93524171395883    2.17089144226637    0.33323513560855
H           2.41302686333356    2.96352634329332    0.58178493778793
H           1.04669203146718    2.23815075325752    0.75636280078224
N          -1.13685217428598   -1.64535975651443   -1.21871738582408
H          -1.08900817315181   -2.25338698074151   -0.36558213346014
H          -1.78933731930646   -2.00432416889603   -1.90588391457611
H          -1.41334444901399   -0.68275715343373   -0.90029328315944
H          -0.12804857491219   -1.53599466966788   -1.62286890130054
