    26
        -50.47201021  Gyration_radius:  2.43871634442 Dipole_moment: 3.185
 S           0.76389456440811   -1.38657176915648   -0.80826900988942
O           0.31773635717797   -0.04248976624264   -1.17909529310790
O           1.14429358392704   -1.41217533396562    0.60727758408107
O          -0.20181811577102   -2.39310125601130   -1.15633642987191
O           2.06699939292712   -1.67299013624036   -1.63395885259286
H           2.69618887248655   -1.03563159048353   -1.26407352282379
O           3.30762696654509   -0.08083771233949    0.18114869990263
H           4.07506580212035   -0.46273611153448    0.61115057546548
H           2.52043916767244   -0.56228951343840    0.53539416026008
O           1.26924819921203    1.94255385021310    0.27582048882005
H           2.21446447602271    1.78275351028617    0.35841733085043
H           0.95851936932544    1.22768263987169   -0.32499689080286
O          -1.39511519624453    1.99429447835387   -1.21708331003035
H          -0.76066782667981    2.64507026661120   -0.89993970029604
H          -0.84833039179431    1.22201818240855   -1.46215015827616
O          -2.60581811184596   -1.81020458392547   -0.35493671339732
H          -1.68836412096619   -2.09579556248107   -0.59530131780422
H          -3.10615864071463   -1.87040750243392   -1.17124041173289
O          -0.04221531782851    0.44004550919552    2.08453503475052
H           0.44281501745686    1.16795993846067    1.63925146548071
H           0.35518597774348   -0.36828124334992    1.69573923824234
N          -2.32424953769710    0.56303639778880    0.82778767304861
H          -2.49550669093089   -0.38590466601453    0.40178053001752
H          -2.10114563382659    1.22892616496123    0.04105224871801
H          -3.12482527214387    0.86818828890730    1.36957457764920
H          -1.43826290058040    0.49688753055886    1.43845201333817
