    26
        -50.47230129  Gyration_radius:  2.43614403473 Dipole_moment: 1.589
 S          -0.54259306817037   -0.49148204970584   -1.97920339920122
O          -1.79281571244626    0.20905404495414   -2.15836830118408
O           0.63111720608694    0.35976601928026   -2.08820753721940
O          -0.49371213273019   -1.28511025159243   -0.75888667107244
O          -0.46556802689272   -1.53005089965972   -3.18044067315594
H          -1.15620587701925   -1.20254367244259   -3.74644443708865
O           2.04823299743809   -1.07494356233510   -0.09807181301697
H           2.45721521984608   -0.69166446032558   -0.87786477674016
H           1.10881435039722   -1.19071340722805   -0.36034482681985
O           1.66157417009558    0.96244156915567    1.59547035926498
H           1.95933115224300    0.19247893581198    1.05825795282591
H           1.41111108287055    1.63730034009875    0.94101935179132
O           0.60104977135574    2.40007436134953   -0.49537184013126
H           0.83251324212660    3.17795549556064   -1.00469813323939
H           0.64037989847465    1.63568731609456   -1.12912984113773
O          -0.39071514853831   -2.54538998255977    1.56407527667665
H          -0.60097206663869   -2.30548092430385    0.64269106424460
H           0.55157662642392   -2.73566571456108    1.56119263999491
O          -1.84795056668123    1.36563787768104    0.21746297042246
H          -1.10374695089535    1.96562609566161    0.04024396393234
H          -1.98938529896775    0.89612976810241   -0.63054734980857
N          -0.71781216207727    0.04559079844879    2.20418194626705
H          -1.28587219972242    0.48116800377126    1.41687345141406
H          -0.66875769674437   -0.99368602488804    2.06353085390425
H           0.27169666673087    0.44027393636925    2.09672975929566
H          -1.11850546656108    0.27754637724781    3.10584998977682
