    26
        -50.47220493  Gyration_radius:  2.41979272835 Dipole_moment: 2.796
 S          -0.42913297013985   -1.27412655200377    1.07510740151145
O          -1.25660634017783   -0.73213919180004    2.12423759517353
O          -1.09867605408620   -1.25305528307498   -0.22180419354694
O           0.89422967191808   -0.68227731378271    1.01235652417274
O          -0.19267595499558   -2.80413683812470    1.42762522768515
H          -0.98983539893840   -3.01186971628322    1.90231048267114
O           0.49517306992755    1.78683864475291   -1.87704180191726
H           0.72193589403167    0.86004755826960   -2.13029976342020
H           0.95887111108961    1.95704753340460   -1.03930540450140
O           1.31188713830172    1.88410517178708    0.76673399709256
H           2.17651253967493    2.10057912801746    1.11889453771352
H           1.21174580916932    0.90881519539081    0.86390291589088
O           0.73347680246862   -0.84497923584360   -2.19188013842475
H           0.01868523792728   -1.08697220559840   -1.57867249435944
H           1.49522804581765   -1.36036198240541   -1.88379502105482
O          -1.32729594437081    1.90555127553093    1.67231067171028
H          -0.38808743969524    2.12455238391949    1.56342478038220
H          -1.35342362074498    0.98751686278450    2.01203845758367
O           2.21569923408614   -2.45623450940361   -0.49483690187903
H           1.85196617629475   -1.81255370721324    0.13839735469239
H           1.84244415912248   -3.30311271007721   -0.24549870992605
N          -1.81225015236124    1.23277437427160   -0.81988389763107
H          -2.67335054501046    1.44943183400270   -1.30815296641366
H          -1.69617350496632    0.20284006132092   -0.67537349896327
H          -0.93596420142170    1.56169407922435   -1.36290703508680
H          -1.77438275292753    1.66002514292497    0.15211189084851
