    26
        -50.46991341  Gyration_radius:  2.50625906631 Dipole_moment: 2.013
 S          -1.36801041186120    1.18028465395826   -0.82959848881277
O          -1.11602762754638    0.26275799777144   -1.93176757296931
O          -2.56345193190340    0.81729628078839   -0.08531783514345
O          -0.20925094866829    1.35799689648580    0.02240798054565
O          -1.66303659380345    2.59400524985688   -1.47508242868278
H          -2.52941967263615    2.47404929394816   -1.85044150281618
O           1.85317595275319   -0.24176975045074   -0.49776189192828
H           1.98198184295041   -0.15762781801654   -1.46024057325216
H           1.18103244611643    0.44187751875921   -0.29441250486957
O           2.56392377066656   -0.55056463603631    2.10215058761594
H           3.36654143392662   -0.05502989891866    2.27142548235004
H           2.44118330051912   -0.55140435949432    1.13542860514302
O           1.28523629845930    0.10159767091118   -3.12047869922596
H           1.20017319609324   -0.59629890996421   -3.77202698672080
H           0.38464468494476    0.25314386693164   -2.76869719254824
O          -0.29465534615898   -1.87823178573783   -0.53556410766358
H          -0.71151332114228   -1.25908750305437   -1.16472078454389
H           0.62213247249132   -1.54211830096605   -0.45459593929274
O           0.19445665587242    0.64263836914487    2.62385974255940
H           1.06965364420281    0.20085323487831    2.57882661129297
H           0.12855105484041    1.17189822535569    1.81038055105736
N          -1.57971998056963   -0.95809510834803    1.56638850211817
H          -2.13494065986757   -0.25177808188492    1.01287494246811
H          -1.04624388609677   -1.50820305642844    0.83020779527669
H          -0.88074096802844   -0.39768155044164    2.15332964743668
H          -2.17567542555698   -1.55050846904298    2.13342605060489
