    26
        -50.47120641  Gyration_radius:  2.46096538377 Dipole_moment: 1.586
 S           0.67784029576193   -0.00131450843438    1.98104216955069
O          -0.52518472469251    0.80353703160719    2.13061598290349
O           0.35435957224651   -1.36850900442972    1.58186214536230
O           1.67793221668419    0.60491758423692    1.13491028913890
O           1.31211949475507   -0.10391840930649    3.42812688491909
H           0.55621262819865   -0.35040887942350    3.95037456828259
O           2.01358409122680   -1.58225122296875   -0.45237325171050
H           2.57141726252593   -0.86108325108935   -0.13906342288323
H           1.37622412524969   -1.69511409108245    0.28303492965706
O          -1.93459141064383   -1.92595899288472    0.38599589437764
H          -1.87041106290390   -2.87049077375959    0.23563409917120
H          -1.13080081265797   -1.67969370600408    0.89253006216168
O           1.13496842775631    2.02756125680961   -1.06878591679644
H           1.49768653906176    1.63206586707194   -0.25110483374957
H           1.06164606215193    1.28508973405631   -1.69408001282834
O           0.67240223461241   -0.37923993324192   -2.36006032959436
H           1.15665194790324   -0.89747699834086   -1.65978917691231
H           0.99133681577120   -0.70462701268357   -3.20267834903641
O          -1.97474318996735   -0.14953969565559   -1.61643622839634
H          -1.09203348466158   -0.29414201694776   -2.00199852267242
H          -2.08392288826668   -0.84797611443721   -0.93566379951905
N          -1.31278681956152    1.89702875916161   -0.12189187632971
H          -1.72573820290112    1.12123697333577   -0.73256993736279
H          -0.37641138033214    2.15683998217676   -0.55198467991244
H          -1.93609353002734    2.69194713030324   -0.04355039013344
H          -1.09166420730642    1.49152028193495    0.82790370231164
