    26
        -50.46936870  Gyration_radius:  2.5420432844 Dipole_moment: 2.069
 S          -0.52988003875686   -0.59608684720305   -1.47735784264906
O          -1.79202557856461   -0.66514949841270   -0.73624976709037
O           0.16481168803339    0.65085595775015   -1.17994474970093
O           0.31110628066433   -1.75032668668174   -1.22849049712100
O          -0.87826703815844   -0.59518209693853   -2.99953674546509
H          -1.52981469452642    0.12717163355010   -3.06569309575312
O           3.15687223509946   -0.58745358665441    1.58330869383153
H           3.88621915124799   -0.91259654865372    1.05299532297340
H           2.87548914544207    0.26433887877907    1.15631577682405
O          -0.60366890652950    2.11539296480154    0.87608439223082
H          -0.36977886402106    1.61856537816317    0.05882512842469
H          -1.32779564098107    2.69333756194179    0.63131430066522
O           2.24560257372732    1.51100231238318    0.29399193049805
H           1.68229603602409    2.07445739260159    0.83454632945599
H           1.64791998834274    1.15736431505028   -0.39176785131511
O          -1.23609372463892   -0.34135657300421    1.84147613159015
H          -1.62255631508027   -0.53630739553933    0.96198416107479
H          -0.99509883072156    0.60322162522032    1.78272760216284
O          -2.84912671707824    1.08080995690634   -2.34976073270773
H          -3.73267107033853    0.82960866412171   -2.62783048220214
H          -2.62333609986728    0.50584615018521   -1.58721413007190
N           0.83491169627619   -1.86778723027438    1.33160486477993
H           1.77146497526557   -1.41566533607485    1.50983155623609
H           0.04381298769872   -1.25400098384324    1.70452319772004
H           0.67669330903294   -1.91517512594139    0.28354243931725
H           0.79291343240828   -2.79488487223257    1.74077406629135
