    26
        -50.47112206  Gyration_radius:  2.46447958289 Dipole_moment: 5.767
 S           0.14228631099153   -0.29916129603171   -1.53239464594385
O          -1.10113915935176    0.08065367595130   -2.16556031774186
O           0.78087227540127    0.86008900516798   -0.88868754805324
O          -0.02177589443329   -1.38715279776934   -0.58354612702639
O           1.14257276361847   -0.80355361465987   -2.62586669487519
H           1.15888617703948   -0.06048808043400   -3.25972498538836
O          -1.08295065043128    1.40964716529251    0.95424584566530
H          -0.44050682284987    1.37326335624114    0.21647242676828
H          -1.77498416343268    0.75570700370569    0.71874691911834
O           2.50544077618673    0.36388716233604    1.00968822567601
H           1.90302155202741    0.47030022280919    0.23205622650827
H           3.12002315709608    1.09834070988532    0.96635762842960
O           0.53014968017626    1.57347075524270   -3.62860363458889
H          -0.31807981171619    1.21069996306482   -3.31499249144872
H           0.87451543768709    2.07340991197607   -2.88248412891965
O          -0.55862539506066   -2.29916451850368    1.87379636494906
H          -1.51048214676676   -2.21703610740589    1.75465089885807
H          -0.19072037176630   -2.19787993380678    0.97531112452833
O          -2.50621288549524   -0.73718170902339    0.13495420202639
H          -2.98020670766909   -0.45873546192690   -0.65296989164745
H          -1.65241457441088   -1.06818787699629   -0.21034935719701
N           0.40191680962273    0.05562266011954    2.62037859864805
H           1.33656423493772    0.13879874233419    2.15026639466998
H          -0.25664569983826    0.69759450501910    2.06431655150330
H           0.05052093889617   -0.93240788888895    2.47104228846816
H           0.44797414946777    0.29946443624437    3.60289612700466
