    26
        -50.47679053  Gyration_radius:  2.36806509625 Dipole_moment: 3.214
 S           0.32796720902870   -1.50283882496929   -0.18152854985200
O           0.89902518555549   -0.47665768667636    0.70581618475235
O          -1.05535380950027   -1.15579776490207   -0.50954507361645
O           1.13385436863146   -1.67379384196998   -1.37237418355973
O           0.31759204837899   -2.84012098753839    0.59347693257825
H          -0.00055829768860   -2.57949165468649    1.49741451727317
O          -1.11619445431448    1.18509413685928   -1.79233681634366
H          -1.27903439874484    0.26210575444041   -1.51164834714781
H          -1.03413296943347    1.66315087903636   -0.93928484179330
O          -0.41227503304970   -1.63342127223210    2.76976924524868
H          -1.25688744951406   -1.19099943029081    2.55603857814296
H           0.27352285355648   -1.00576173353062    2.50406972494385
O          -2.44359480994941   -0.31453558417670    1.53245846383228
H          -1.98287292686678   -0.63609500958711    0.71772698634204
H          -3.34474047418100   -0.63498963273315    1.47349650504513
O           2.35153578325256    1.65698432541678   -0.03799556739790
H           1.76770788443347    2.32715574730869    0.33108421048899
H           2.04339808666869    0.81383895411282    0.34985723027233
O          -0.59718435524364    1.74453882240785    0.78517088899868
H          -1.40615333220489    1.49412895919779    1.24576516110867
H          -0.04821852839052    0.93390729996038    0.80518862806575
N           1.39262800265516    0.72845172886592   -2.33844458222393
H           0.36500982957797    1.02967044342174   -2.28501312517813
H           1.38666878897835   -0.29989046961694   -2.06913218703911
H           1.80120668497790    0.87641254800623   -3.25436231474129
H           1.91708411339627    1.22895429394015   -1.57566763820546
