    26
        -50.47392005  Gyration_radius:  2.43984574702 Dipole_moment: 2.185
 S           0.39391774975104   -1.89090027444646   -0.07504786530980
O          -1.00449840324745   -1.49086743724565   -0.15888438506824
O           1.01469022614966   -2.03343135287687   -1.37154235028238
O           1.12579693677199   -1.03380768514676    0.84473592084504
O           0.41181563468430   -3.33366141226755    0.57495945653709
H           0.34754943392157   -3.87095752554059   -0.20610755306803
O           2.19866404525184    1.21700378294100   -0.31967264841173
H           1.99020933872525    1.04074630147995   -1.25084299761442
H           2.01225297450679    0.38255618225589    0.14071173366240
O           1.14154339376548    0.22818641678295   -2.68788401236096
H           1.52600799106056    0.07865199371000   -3.55285706037585
H           1.10422707170363   -0.65232694383022   -2.24464561190066
O           0.02872108801019    2.54551345581094    0.45594300397050
H          -0.54076951670004    2.14594276782135   -0.24011096956635
H           0.94100404708788    2.28219907424296    0.18846574190099
O          -2.71620683790701   -0.31616222989087    1.48769200599248
H          -3.19158469494523    0.27188405292727    0.89538383165358
H          -2.20495474467253   -0.91361657284237    0.90215371377275
O          -1.17515948355663    0.94207206031959   -1.31673616427278
H          -1.19055678540075    0.04621913998484   -0.93291962895783
H          -0.49410782716270    0.89851853988210   -2.00319452247642
N          -0.34576827650713    0.69341972795621    2.21075409729027
H          -1.33866324620397    0.36995911149224    2.11432022838717
H           0.26620863377430   -0.04995060221812    1.78978532907453
H          -0.20572429518773    1.57332277034264    1.57901781060877
H          -0.09461443367262    0.86948664835844    3.17652288596899
