    26
        -50.46585336  Gyration_radius:  2.39928327702 Dipole_moment: 6.517
 S          -0.29736966224428    0.84760532375352   -1.17678962029489
O           0.53171202800191   -0.35736897409273   -1.03016621295822
O          -0.55985759108068    1.42463320015761    0.15809376235072
O           0.31518400829635    1.81173425891001   -2.05406192649987
O          -1.66916623473989    0.41580527694158   -1.73828003638056
H          -1.71572608859319   -0.59721517642154   -1.66664647301995
O           1.17597385602587   -1.28840521296334    1.29060661823490
H           1.64670429763561   -2.11318959987588    1.16008531086093
H           0.89831598083485   -0.97674190809315    0.38571911483357
O           2.73986811888736    1.53323616525484   -1.15288642516194
H           2.94800327925565    0.66968924164009   -1.51788231095241
H           1.87765840045140    1.77520485312820   -1.57795393380766
O          -1.60454349527395   -2.03953658954304    1.22267034172640
H          -2.15597304641037   -1.23454886503548    1.31163871971536
H          -0.71793092968948   -1.78478324219213    1.51106035974605
O          -2.83693000817152    0.34992011746404    1.03110126127985
H          -3.42135086400143    0.38184919790613    0.27073643757758
H          -2.03489531999128    0.84209126840452    0.76623322101610
O          -1.48410257898376   -2.09924083813890   -1.41925575929464
H          -1.63736457469070   -2.22221492712238   -0.44593668578556
H          -0.52949762363363   -1.98673937095394   -1.51126181510617
N           1.73540773331104    1.34315743094442    1.27454032518252
H           1.76405229930450    0.35732598850120    1.59098833542782
H           2.31280886270609    1.45682122225894    0.38888354261932
H           0.72377291254010    1.49220919034344    0.92566991647141
H           1.99524627024262    1.99870196882591    2.00309394219470
