    26
        -50.46660607  Gyration_radius:  2.59498855513 Dipole_moment: 3.415
 S          -0.83346718388607   -1.39801922700922   -1.02668641041070
O          -1.48615315107905   -0.10743744124058   -0.80705697940357
O           0.34706147606730   -1.29434046648095   -1.85114479550649
O          -0.60143883329375   -2.06836046476890    0.24238616407471
O          -1.85278654738781   -2.28429907508112   -1.85402070807082
H          -1.32483293017170   -2.48904021647209   -2.61870934579308
O           2.33771292003625   -0.29616520669916   -0.37081690251503
H           2.46472829431831   -1.07138249976366    0.21447959716527
H           1.77124826307483   -0.63572827749474   -1.09188789138548
O           1.89241925494166   -2.40058139750231    1.24867493689986
H           1.03156455588700   -2.48317340892513    0.79937253815076
H           1.68260758160516   -2.12574985628279    2.14537147822021
O           0.08609762699261    3.54144862879914   -0.00586925573887
H          -0.53551069920941    3.22195512938634   -0.69864689622010
H           0.82385945016852    3.93452913072910   -0.47501137865886
O          -0.40408437024733   -0.87546970119804    2.62815432257003
H          -1.17886354082900   -1.03447945423208    3.16810974751522
H          -0.55141231573379   -1.36468006810676    1.78998358112566
O          -1.51889915174642    2.37399284603573   -1.82326190060855
H          -1.49995435520786    1.43025731834394   -1.56665973465646
H          -2.44544458751063    2.61883962955366   -1.84966640765919
N           0.36600555700468    0.98125547004844    0.78408153638489
H          -0.41270080399875    0.60721426420702    0.19514944677039
H           1.26730998743214    0.57013291486647    0.37727288611095
H           0.35642288308776    2.02101004281513    0.70793781123539
H           0.21851060969233    0.62827139647090    1.73846456040284
