    26
        -50.46846884  Gyration_radius:  2.43348716641 Dipole_moment: 3.890
 S           0.82049560689465   -0.91963613970121   -1.36299219901644
O           1.08485371613026    0.17699169696301   -2.27381570756698
O           1.14375577001648   -0.63382522665284    0.01298095503725
O          -0.54176741988999   -1.43203196336788   -1.50407317236684
O           1.78153616492819   -2.09617993310462   -1.81941598890211
H           1.73330651746448   -2.02506056387630   -2.76674815876973
O           1.75415411274987    1.92858196515040    0.61983959241951
H           1.70658279381458    1.03239914340567    0.24098945299344
H           1.22095293643203    2.47256223066041    0.02823821905421
O           1.09801633892530    0.30615121987656    2.64974076769929
H           1.36243910752136    1.10590197770128    2.14854703227507
H           1.47807448185758   -0.41303436268411    2.13013370649099
O           0.10090569360416    2.48857495586410   -1.58834496437392
H           0.54349110572386    1.65919952423635   -1.89902247798956
H          -0.03057326519801    3.02945033537284   -2.36845587943986
O          -1.27121036922987   -2.61601907589267    0.71592442732308
H          -2.04538596348429   -3.11427382751001    0.44713059413661
H          -0.90039993251927   -2.23249716045710   -0.11482035207775
O          -1.73420805120029    0.77086981687187   -0.56645668859872
H          -1.39260157758786   -0.02121414752199   -1.02601184944884
H          -1.18116559311734    1.51436648571420   -0.87264249228774
N          -1.36401489177379   -0.18721756617823    1.85864507208372
H          -1.53062775422288    0.33793201878191    0.94972188014192
H          -1.35375327980683   -1.19903665192517    1.58557837980879
H          -0.39426587833646    0.05936008357444    2.23506355649979
H          -2.08859036970699    0.00768516470607    2.54026627487587
