    26
        -50.46709573  Gyration_radius:  2.44968863074 Dipole_moment: 3.045
 S           0.67685150388910   -0.19172232523576   -0.80949315100817
O          -0.53811488840702    0.61856912220796   -0.88693459279204
O           1.42240557448150    0.12214794861743    0.41106319262749
O           0.37226101156562   -1.61360877886641   -0.88233994244739
O           1.56786482818688    0.15213710624074   -2.02378861300259
H           1.43626401367190    1.13760114885114   -2.16514394121200
O           0.90602202000769    2.62689044709105   -1.97810022577862
H           1.39332516690260    2.90439762070219   -1.17417165393218
H           0.06298608156656    2.27696772918077   -1.65393985381587
O          -0.66507316777659    0.28643833037719    2.01106129397019
H          -1.12893838930850    1.03666813738648    1.63026487498367
H           0.19568388296050    0.25225311460588    1.53762935719258
O          -3.00705385265139   -0.35322641359192   -0.90876743817704
H          -2.13233958128771    0.09665155824669   -0.94135860258470
H          -3.25301838790735   -0.51642295511928   -1.82031843377743
O           1.01221542998162   -2.57413811712271    1.63215567289965
H           1.05591281132111   -2.38348404786015    0.68488844466080
H           1.50849256571148   -1.86879591395132    2.05214970816110
O           2.15035026207783    2.66959456775705    0.39704721017994
H           1.91531242912347    1.72131154459869    0.49094175642085
H           3.10124781376336    2.72204661000882    0.50595142053426
N          -1.63901927098586   -1.85505231432554    0.79374767158086
H          -0.84381648824122   -1.93465042794090    0.10021645254123
H          -1.78362113067042   -2.73526469770833    1.27797953644588
H          -1.32638552408496   -1.09230908565901    1.46114109078323
H          -2.45981470388879   -1.50499991848682    0.25811876554533
