    26
        -50.46687239  Gyration_radius:  2.48752237904 Dipole_moment: 3.210
 S           0.84199992377039    1.77140175743286   -0.63569369532799
O          -0.11300900322142    2.50342713968670    0.16890688941726
O           1.41060844379670    0.63449477332818    0.09680092655985
O           0.38324165325880    1.38569111386329   -1.94474647311779
O           2.05610906430086    2.77367534507641   -0.86619706629694
H           2.09244092866308    3.28660154647267   -0.06403906649776
O          -0.65439613688056   -0.95094161868382   -2.87473127815539
H          -1.45234039120257   -0.86922065943310   -2.33509095693532
H          -0.26496442448388   -0.05778436368651   -2.84913998174824
O          -0.13790772124434   -2.77514832879560    1.26780640999530
H          -0.10118089167268   -1.89316861816787    1.72602331193641
H           0.31627351352550   -3.38913548420603    1.84616618960252
O           0.26109100239063   -0.40107095640962    2.33018109748789
H           0.76517559359036    0.01498452227477    1.60697791700465
H          -0.53484434794505    0.14417719059036    2.42077130468682
O          -1.53430111634120   -0.00162857401217   -0.47769987386935
H          -1.87491907271369    0.25552873428336    0.38812266944583
H          -0.96110106213278    0.71654453920161   -0.76779130443918
O          -1.75424886579949    1.45055771989975    1.95070036189938
H          -2.32210429526178    2.11713765208277    2.33898841572521
H          -1.14829417197799    1.92464117109343    1.33814421195427
N           0.95951982857301   -1.75246272734460   -0.94098976984296
H           0.29410037188595   -1.57260005393940   -1.75315576076553
H           0.46980116528997   -2.26510987847604   -0.16122772440549
H           1.78818091449228   -2.24965553808722   -1.24793483393274
H           1.21506906734458   -0.80093639410283   -0.56115194035885
