    26
        -50.46936525  Gyration_radius:  2.43004942208 Dipole_moment: 1.264
 S           0.14638979064043   -1.17643034708737   -1.44845254417808
O           1.43990953581836   -1.31978126854010   -0.78726511895185
O          -0.93680019113816   -1.47815271615938   -0.52122293764535
O          -0.01319278281328    0.09026559500558   -2.11715531846449
O           0.09409411850869   -2.28756406803041   -2.56963402527053
H           0.19916779478542   -3.08985297107440   -2.06910203650907
O           2.12553423314488    1.24898870795296   -0.70966723791539
H           1.98090827251459    0.28295254296662   -0.73700742763873
H           1.81839469466290    1.55619935425840   -1.56645706667008
O           2.12441880589273   -1.44378647007076    1.79780153779522
H           1.95499917117395   -1.54050793993067    0.83833006139334
H           2.87969569474559   -0.85594453452866    1.86710028518768
O          -1.64437555820232    1.81085120092392   -0.97760493350876
H          -1.08198749592508    1.14041350488072   -1.43090619837357
H          -2.02827823357677    2.35073731163485   -1.66994699497595
O          -2.93144777779012    0.02451699503553    0.83164190693683
H          -2.69764129345395    0.80960656363431    0.31892690076473
H          -2.62416901055651   -0.71347126911585    0.29359129386886
O           0.22856208434330    2.09285134391788    0.98918137702783
H           1.02301347843569    1.90937760855067    0.43906826441330
H          -0.49786345940509    2.22902861873274    0.35607567392954
N          -0.31546705464798   -0.33500478423981    1.80330105730219
H          -0.12547997854618    0.69640251390962    1.57009084210483
H          -0.61476189675124   -0.80770808274235    0.91294694838002
H           0.57117349194175   -0.78677127339433    2.11110098379330
H          -1.07479644300860   -0.40721616686979    2.47526470950931
