    26
        -50.46426253  Gyration_radius:  2.67584888152 Dipole_moment: 1.692
 S          -0.12691351156784   -1.18865938135374   -2.08855225414383
O          -1.08556440234882   -2.05933816029517   -1.43854744402824
O          -0.75158674007196   -0.07315614043413   -2.77203899989798
O           0.93402062075380   -0.78145479078828   -1.17110976586407
O           0.60186964611407   -2.04348081335488   -3.20824880487923
H          -0.07925110413911   -2.13778854982110   -3.86606022315473
O           0.98596784747123    1.84381279487736   -0.54106068675774
H           1.11741628678654    0.93341442087929   -0.86181453658876
H           0.02843166157122    1.98350465386514   -0.58486050319653
O           1.20812658910211    0.05347466460505    3.20097250328235
H           1.60765118291650    0.82479019637215    2.71966250034596
H           0.59860023314818    0.43388331647107    3.83564618511579
O           2.10135551319194    2.10824377109627    1.83571957297415
H           1.65502001057919    2.06591980628920    0.95206317267478
H           3.03905868196118    2.16850303265766    1.64868871752542
O          -2.33194857183557   -0.71955346414058    0.47280479902886
H          -2.13319164409565   -1.30246631285336   -0.28967117012561
H          -2.27234264881973    0.18353770105874    0.11229578939275
O          -1.74878894036985    1.51766546005816   -0.98550602215003
H          -1.39415139543613    0.94226755406275   -1.71251302124343
H          -2.35226500809203    2.13290879007588   -1.40555634412284
N           0.09038756478989   -1.38465286249611    1.24933714728286
H           0.54871840437180   -1.18076722709121    0.32095505948939
H          -0.92743129894740   -1.09324426973192    1.12207790273392
H           0.13575977693907   -2.38292212593471    1.42575717636414
H           0.55105123597525   -0.84444206407163    2.02955925993879
