    26
        -50.47603905  Gyration_radius:  2.46491327383 Dipole_moment: 2.634
 S           0.19715686476468   -1.39588260367113   -0.50670458457588
O           0.41720931894463   -0.22465733314909   -1.35139149869153
O           1.18628813143905   -1.44982306735976    0.56675169209456
O          -1.16429178468253   -1.43406087291330   -0.00096765859569
O           0.37760024261257   -2.66360763452959   -1.39360540650724
H           1.34438534674851   -2.70335331838992   -1.53889396945196
O          -2.10374831327578    0.49228833357759   -1.84639162334047
H          -2.52302702732732   -0.27999520254976   -1.45669644755650
H          -1.15302882473023    0.26760099094194   -1.84955911322242
O           0.92666469989445    2.08551209701576   -0.24315371962629
H           0.77403600541677    1.21401391120937   -0.68588101454674
H           1.55186032959646    2.55489344902840   -0.79750488446661
O           2.98605844261834   -2.44326800558948   -1.05301258981955
H           3.44545361366277   -3.19131300073617   -0.66456912243624
H           2.54609843481812   -1.97217251424683   -0.31600592526942
O          -1.81578580023041    2.39320697893203    0.01267302121779
H          -2.06476641314661    1.83608058704423   -0.76074211494411
H          -0.86523861578404    2.56413660339835   -0.10131637186021
O           1.05272305598220    0.69948581850083    2.13800193391219
H           1.20926555043815    1.37951832659802    1.46158624118596
H           1.23532436493758   -0.14883486022803    1.68290415340828
N          -1.53809825887875    0.48228752870202    1.77031107840659
H          -1.77383904977221    1.32617691936381    1.14846026038093
H          -1.49994175313674   -0.35893426443420    1.13747675112465
H          -0.54373163432515    0.61518849629188    2.12525259727164
H          -2.20462693658442    0.35551264719337    2.52297830591032
