    26
        -50.47165534  Gyration_radius:  2.51552900555 Dipole_moment: 0.595
 S          -0.40934969012348   -0.91802611228518   -1.75191830095797
O          -1.70389196564904   -0.57800716791870   -1.20018647625205
O           0.10983274938326    0.05267770687781   -2.69193615068847
O           0.56377106671260   -1.22339816487460   -0.70398365287520
O          -0.62171545013831   -2.26072562289416   -2.56219364432628
H           0.20180682399864   -2.34282266379907   -3.03122766834534
O           2.49936831621632    0.51438206777017    0.14498372283303
H           2.01087907258225   -0.25071243811481   -0.20100111636602
H           2.07362640887087    1.27579566971902   -0.27861699853579
O           1.95846588669644    0.43046323390956    2.75373722966866
H           2.31109627321143    0.44144281745989    1.83031342843086
H           2.16496412751789    1.28645061441070    3.13072325220766
O           0.78521236906012    2.14866814755706   -1.31343325229701
H           0.93884488231779    2.87680765108350   -1.91807203702291
H           0.55513871370162    1.36834128611921   -1.87982904537330
O          -2.42027276938232   -1.94531381088092    1.00447047086798
H          -3.22817415932102   -2.43813313470307    0.85907766063089
H          -2.21767076437741   -1.49984871517737    0.15779575678542
O          -1.40680539792477    1.67488827674256    0.25555315476590
H          -0.64723304070030    2.06046059761416   -0.21549101875556
H          -1.76301375416295    1.00244538935811   -0.35258586781210
N          -0.35142405642259   -0.33793699902475    1.62862193505405
H          -0.80694143571219    0.54967120328928    1.28177321948212
H          -1.07004950147389   -0.96949534466589    1.99003411607788
H           0.05074014923485   -0.79301896598080    0.77157935509870
H           0.42279514588890   -0.12505554156308    2.29181193770567
