    26
        -50.47128551  Gyration_radius:  2.43357430982 Dipole_moment: 2.295
 S          -0.30177030426036   -0.24110171913583   -1.81878725835592
O           0.06958916685416   -1.57970729358634   -1.41755597035790
O          -1.50509423599319    0.25364138077679   -1.18139315946238
O           0.80915128305867    0.69982961317567   -1.66804444418110
O          -0.62031089179863   -0.31357140705794   -3.36407373856314
H           0.07678259696289   -0.88344348590036   -3.66957395205028
O           2.70466241403949   -0.90520599558518   -0.61826340187595
H           2.25407481276650   -1.75043141881792   -0.70696554409600
H           2.13164342236141   -0.27459711125547   -1.09046709565793
O          -0.10590229245616   -1.71927281823921    1.27691920997358
H          -1.02623414627065   -1.45610261231450    1.43294330773470
H          -0.02132458052705   -1.78724765443080    0.30851083799285
O          -2.69231993137172   -0.80549784422089    0.96386483178624
H          -3.36722994530000   -1.45457672849693    0.76169854221537
H          -2.33329863480885   -0.49986753716543    0.10499703536966
O           1.94882693251683   -0.14827953149554    1.85564599190585
H           1.19739540874449   -0.78515479650234    1.86176112499680
H           2.48678009469302   -0.44091993770109    1.08922892378161
O          -1.81613251492297    1.95107921566102    0.91006391659302
H          -1.84857376375634    1.54765597069967    0.02341316712546
H          -2.23523804424291    1.29871926254635    1.48262278283968
N           0.84317322909305    1.88568095209050    0.70397109640345
H           1.31664604494890    1.10330964961103    1.29688303947477
H          -0.16733336932932    2.00251109523935    0.96664917412377
H           1.34507469688951    2.76316238938574    0.78333972692777
H           0.85696254210949    1.53938836271973   -0.28738814464445
