    26
        -50.46995855  Gyration_radius:  2.43678586807 Dipole_moment: 2.059
 S           0.90134996001569   -0.04074006546533    1.06893612414955
O          -0.39096742928584    0.63247051546365    1.23573068363629
O           0.77096959653407   -1.47148626394808    1.30280626749944
O           1.48592341582667    0.26321904743367   -0.22343931656444
O           1.86404621840948    0.54641529879818    2.14926890686898
H           1.42745897625934    0.28558468238230    2.98428119919911
O           0.03328284737716   -0.53613316914852    3.71129621986775
H          -0.63874055588779    0.00395161999060    3.27992082483770
H           0.19730579778048   -1.26665984755382    3.09514216506590
O          -0.34479843016339   -2.49777556777920   -0.83403536724128
H           0.13491537861571   -2.16106249949645   -0.03999079849936
H          -0.43371453025877   -3.44457605111167   -0.71105105064286
O          -0.57030725850225    3.01408534977830   -0.03741903951405
H          -0.58407535754871    3.72944416171941    0.59872552612897
H          -0.51741894590090    2.18810587134168    0.48208426689453
O          -2.01710214098009   -0.34511732268558   -0.68015841987716
H          -1.62333167805378   -0.01422033509161    0.14970489470213
H          -1.62847332213611   -1.22772219049129   -0.81497387571755
O           1.10198785627357   -1.01644449603389   -2.76855611496463
H           1.70500007492111   -0.70775134792490   -2.08334872491221
H           0.55167111790978   -1.67504436213406   -2.32204129935960
N          -0.29324663530512    1.17317468779576   -1.94755791431207
H           0.48792482298307    0.89569878469460   -1.28791178161087
H          -0.01676362045637    0.89825680103330   -2.88998453968103
H          -1.12981817905303    0.60401569634910   -1.60829779326364
H          -0.47307797947074    2.17031100218423   -1.80913107267475
