    26
        -50.46519612  Gyration_radius:  2.68350856512 Dipole_moment: 2.392
 S          -1.56619430281150   -1.80281418314355   -0.17673002691654
O          -1.36401180185493   -0.48489667664598   -0.78706573224060
O          -1.10667777215565   -2.87266747686512   -1.03204868502239
O          -1.02362921326327   -1.84793458410324    1.16621052975446
O          -3.13615830899134   -1.97739772224197   -0.02787313580808
H          -3.41546542486776   -2.18829122978491   -0.91379380430176
O          -1.36948188526864    1.86464978880587    0.55500535520346
H          -0.92239419505736    1.49100950753841    1.32980174422616
H          -1.57120631931387    1.09592745914463   -0.00735453392431
O           2.38646933438666    1.84331714168948   -1.51130514422609
H           2.38150617637486    1.81542031708424   -2.46926626255435
H           1.69030777557849    2.49494726452315   -1.25574238463019
O           0.34683690923907    3.38177571181544   -0.80143863137526
H           0.42133723955237    4.19032835455010   -0.29348377911824
H          -0.34037904926945    2.83618653686133   -0.34535797177840
O           0.04633229391933    0.22272025757391    2.31204924737330
H           0.04188980315069    0.11871321354964    3.26418930728029
H          -0.42635687302575   -0.56854628840137    1.94510090311873
O           1.38266525580204   -2.80682333360659   -0.18070802400221
H           0.51562550834546   -2.94521646755098   -0.62439533416699
H           1.24010096655218   -3.10939421111503    0.71950038984317
N           1.18422647250967   -0.14154351070479   -0.17724133614137
H           1.11769224863270    0.15345661479429    0.80577672446535
H           1.77121858339997    0.53480055524696   -0.72425359942531
H           1.51463211294295   -1.13509133592016   -0.21935560181452
H           0.20111445548340   -0.16263569309203   -0.55022018382804
