    26
        -50.46880367  Gyration_radius:  2.45545516635 Dipole_moment: 4.178
 S          -1.83667746982650    0.43546675848635   -0.43404839153304
O          -1.42988708832809   -0.79158593023656   -1.12666852762529
O          -2.52536976147545    0.15475074626448    0.80299430762458
O          -0.71602492475628    1.34312379314040   -0.29773183632555
O          -2.89694487173741    1.14477882458641   -1.37216509540250
H          -3.70638772628460    0.89258448764734   -0.94101434090199
O           2.36337744301906   -1.09562491942095   -0.58578117084538
H           1.95300892114991   -1.06424374647117   -1.47095169432266
H           2.43220349222586   -0.14967765377289   -0.34159594184721
O           1.96679979698555    1.54802418553533   -0.33013088133460
H           0.99417151277110    1.47264001405656   -0.40131746229650
H           2.25183704965688    1.97649032063664   -1.13886240616168
O           0.37448741700712    1.97408775615415    2.11708103503895
H           1.28244045267121    2.01022945889775    1.80065337262687
H          -0.16920193251578    1.93681708691780    1.31097104815599
O          -0.67494565587709   -0.43422315105663    2.64056920441167
H          -1.50317833179638   -0.23011407654252    2.16245752537691
H          -0.20969131738306    0.42864968453031    2.68664058330512
O           0.71937237336389   -0.60656067111872   -2.68591555391295
H          -0.10174710704360   -0.58624363281693   -2.15058559746541
H           0.48647262834288   -1.02759904912601   -3.51420706170923
N           0.19690676155788   -1.88877543252436    0.66275199277064
H          -0.51223630793095   -1.59562248319264   -0.05077346085141
H           0.14334930462672   -2.88695745494916    0.83538883675647
H           1.15528371844955   -1.62097430060526    0.26520016197437
H          -0.03741837687404   -1.33944059501814    1.55704135449304
