    26
        -50.46711204  Gyration_radius:  2.49277999627 Dipole_moment: 1.530
 S          -0.18409292475989   -0.84784411267913   -1.78345582493574
O           0.72120808910855    0.11177781876540   -2.37729617616251
O           0.44789044923118   -1.52517547456526   -0.64524719376946
O          -1.48783708823950   -0.33295450951355   -1.43163514061223
O          -0.43487605325234   -1.96448616707167   -2.87810334641673
H           0.42402461712850   -2.08821100142984   -3.26946181692332
O           0.35359993059464    1.91190012568338    0.90968099285908
H           1.20702825785219    1.52416875244358    0.64373571280350
H          -0.06335207472533    2.20807119131672    0.06707142686632
O           1.91321190366264   -0.40923041487632    2.80478732172573
H           2.26191985517500   -0.33287453848488    1.90593165463725
H           2.16187733396438    0.40031160068580    3.25461061575634
O           2.33025008221963    0.21917442773258    0.01201879950554
H           2.64506587416289    0.58708190322271   -0.81726564260731
H           1.71243711646127   -0.49367393114183   -0.25915389532685
O          -3.01356398180762   -0.90943495451223    0.69462735081321
H          -3.89497603603542   -0.56367315831141    0.54933102773572
H          -2.52626067656039   -0.77647150641882   -0.14483934629604
O          -0.64752511915746    2.23878849017793   -1.53453726791259
H          -1.42404328767348    1.66684131454278   -1.50203405407877
H           0.00496714715124    1.68219244462268   -1.99601766299609
N          -0.52240161920606   -0.47125009626996    1.58874425129159
H          -0.32311595371075    0.55687902057328    1.37906294547953
H          -0.18889477318060   -1.00856307903494    0.75079188504863
H           0.05929897440288   -0.73526814462612    2.39283469293326
H          -1.53184004280687   -0.64807602081764    1.68581869059288
