    26
        -50.46859127  Gyration_radius:  2.46476274433 Dipole_moment: 3.454
 S          -1.15206756575762    0.45818969695437    0.60909724642073
O          -1.07918118505580    0.39353412318672   -0.84948488074278
O          -0.08020619949465   -0.34177476722650    1.21062893068076
O          -1.09802331655083    1.83220215389819    1.08846794945887
O          -2.50334306020460   -0.13393268593009    1.05544946510435
H          -2.55588598089775   -1.02138985824895    0.59708229474833
O           0.36284181033008   -1.35883270120080   -2.22091869764916
H          -0.18770203227673   -1.71161772002962   -2.92183831133872
H          -0.21669707695387   -0.75014108485730   -1.71150582485950
O          -2.49535003733027   -2.47896540693752   -0.02372106616396
H          -2.91306733619200   -3.09964353156171    0.57654771581729
H          -1.51832652872537   -2.69632509407352   -0.01392111660213
O           0.96215135383961    1.63663961422581   -1.96336957539376
H           1.45023789895188    0.85352269994231   -2.23721438341692
H           0.09197328991796    1.28681598917662   -1.66357664982685
O           2.27841564322839    0.60894636471820    1.82290359657362
H           1.43135528163452    0.15318726611562    1.59224831921753
H           2.37502644245303    0.51121170607422    2.77138788001551
O           0.09203198723673   -2.75760579674021    0.11746605488625
H           0.40929591814224   -2.49125345206258   -0.76361424686245
H           0.14734793308705   -1.93662126851538    0.64702489589687
N           1.26383957913019    2.64238757350317    0.45925589744607
H           1.86241390089529    1.99635078903907    1.02879309728463
H           1.50536627265762    3.61822207821755    0.59089054390106
H           1.31584733919826    2.35418477831982   -0.55638249949114
H           0.25170566871196    2.43270852407168    0.75830337483941
