    26
        -50.47391821  Gyration_radius:  2.43999550656 Dipole_moment: 2.209
 S          -0.13223031181126   -0.68535302344784    1.80250406594947
O          -0.93215955256438   -1.27203907885193    0.73869359607743
O           1.19499087837544   -0.32580785217381    1.32037871910886
O          -0.78388043372682    0.39537090845765    2.50515870860727
O           0.07387940899808   -1.83661930411502    2.86845337571061
H           0.21062010461334   -1.31840442275115    3.65305652745453
O          -0.35787175767933    0.54726864041208   -2.50318924018858
H           0.22866300444953    1.08868159399644   -1.92775946061758
H          -1.23692955255938    0.60677460600278   -2.05944824681417
O          -2.35935659438161    0.55015624623012   -0.75120626763330
H          -2.17282961767943    1.35978444211029   -0.25002823199646
H          -2.03884976505793   -0.17225250344132   -0.18701815432945
O           2.79520002280319   -1.23681561061077   -0.58425577831670
H           2.34460420893633   -0.97161551929003    0.24528211358840
H           3.16278886338402   -0.42495598990674   -0.94239567323961
O          -1.28606859127488    2.45183842306218    0.96238207990174
H          -1.10715612757235    1.71300375107633    1.59117740932398
H          -1.67960876394885    3.15632549008358    1.47921002517571
O           0.97090656867754    1.67925375940878   -0.47409278460893
H           1.12873237706112    0.98786802590664    0.19450624487560
H           0.27079468452316    2.22841117331627   -0.09288851334104
N           0.34449262048742   -1.73690722642702   -1.53435810139168
H           0.11405376363840   -2.58201345249121   -2.04372865355911
H           0.05754454519360   -0.83397782450507   -2.07780144766357
H          -0.17743093229126   -1.68910024312110   -0.62351041440629
H           1.36710096940676   -1.67887501892981   -1.30912190766304
