    26
        -50.46906817  Gyration_radius:  2.49508212264 Dipole_moment: 3.425
 S          -0.79544270352499    0.06746707462384    1.14438149694520
O          -1.37437076095622    0.21516986408950   -0.19180741810933
O           0.58434062307619   -0.45409746142826    1.01906780572761
O          -0.81838887499903    1.29921213660396    1.89230309382904
O          -1.61675562408175   -0.98555976644140    1.91598961418630
H          -1.65325243387918   -1.78735219435238    1.32480548280989
O           0.80849348849413   -2.59165982245994   -0.54874147738848
H           0.89062484216051   -1.85441754320364    0.08966687321241
H           0.52589253328376   -2.16658836400790   -1.37852227335303
O          -0.01195156585817    1.73092820540383   -1.88023073626089
H          -0.66315597187334    1.36542482984169   -1.23968196151347
H           0.04187497180115    1.05262965732602   -2.56365737475516
O           0.94231388808444    3.22274178753622    1.84203542124716
H           0.27063983729564    2.51969271809879    2.02340585563318
H           0.43646049498620    4.00830430282983    1.62549314188976
O          -1.55548733605079   -3.11522097437046    0.43661420749763
H          -0.64916302824628   -3.04571038391877    0.02324427927738
H          -1.52643688431061   -3.87260971300156    1.02402815920463
O          -0.58982858943580   -1.08639437792655   -2.34932679670767
H          -0.94542831635597   -0.66606710986352   -1.53151362327888
H          -1.31411185660507   -1.60108959339059   -2.70845545501844
N           1.83981040466545    1.55689985243859   -0.00748867695881
H           1.65718010845804    2.33683315910143    0.67839031768689
H           1.44121981334662    0.67528165532308    0.45116373273915
H           1.24857592751815    1.71756236747843   -0.87073149976175
H           2.82634700300386    1.45861971367289   -0.22043216878225
