    26
        -50.46885583  Gyration_radius:  2.54377156602 Dipole_moment: 1.937
 S           1.58503872160950    1.00957001185656    0.74172207646529
O           1.99156882796287    1.92376631556140   -0.29342270669415
O           0.33451039058883    1.40324132670614    1.39048274976173
O           1.53585274207593   -0.38385000325725    0.32306566125101
O           2.70726457028752    1.07098088766569    1.86455728751267
H           3.07744747916030    1.94196747565607    1.76141557404974
O          -1.66919017850429   -2.47579306837811    1.46035931226119
H          -1.55967649984807   -3.38092424633873    1.75331447138497
H          -1.05219410205647   -1.93240581061604    2.00726697005409
O           0.22742542006864    1.51551319785860   -2.28617559678681
H          -0.56602441182532    1.79474723480961   -1.81446653766499
H           0.96734252118446    1.69271314219385   -1.67484032727134
O           0.22535890494155   -0.98036897806155    2.61583759303766
H           0.97970120268518   -1.17414640045785    2.04370242479801
H           0.07028584986671   -0.03554571903987    2.44822407920313
O          -0.17252007570101   -0.96030971119853   -3.21010012021412
H          -0.01830013199802   -0.00291188229695   -3.03278107004320
H           0.68073720344063   -1.31944112068629   -3.45771597451545
O          -1.71249964723149    1.57707450840405   -0.20000667713254
H          -2.46356549048559    1.95306759615312    0.26155882836737
H          -0.94831843170824    1.62189721893402    0.42755370729097
N          -0.86386100626799   -0.99305505931679   -0.63348826430755
H          -1.29703974211029   -1.72618696703670   -0.03960251378619
H          -1.39914590271154   -0.11006298812398   -0.54547736853493
H           0.10337429871585   -0.79904972784911   -0.26586006711763
H          -0.76357252225030   -1.23048723319701   -1.64512352138674
