    26
        -50.47026234  Gyration_radius:  2.45486340273 Dipole_moment: 3.215
 S           0.12171044127391   -0.24965226819692   -1.79510965676860
O          -1.23092107398865    0.05639610652552   -1.37420752603105
O           0.76590860088437    0.79837616815462   -2.54885321019319
O           0.93507803654652   -0.70587375277789   -0.66695668815249
O          -0.00104469242887   -1.48765601361048   -2.78392212160102
H           0.68027537325902   -1.33869987929987   -3.43195503040602
O           0.66416575923328    3.10509520003665   -1.24589819597428
H           1.23846215255797    3.72307183454021   -1.70165850832422
H           0.63556603439624    2.30021109494822   -1.80720887215735
O           1.50140103117001   -1.19289408418249    2.05499070966679
H           1.79609055337536   -0.29657045072442    2.23844820772149
H           1.45428770207679   -1.25659682368404    1.09061966961646
O          -1.16150438781130   -1.54187468412418    2.32849285966128
H          -1.28007101051424   -2.09002684370427    1.52569583869174
H          -0.19361485895997   -1.55245729094043    2.47900035862411
O          -1.06545192860259   -2.47740621250798   -0.20048647044408
H          -1.70662404306543   -2.15144716599763   -0.83657173871483
H          -0.25427498245634   -1.98260983752791   -0.39620347209597
O           1.20131692216419    1.52003671784835    0.83968456137481
H           1.29910516613799    0.74140815000586    0.25956699105185
H           1.11291531990110    2.27321715077060    0.22124118833358
N          -1.32575004403368    0.78164713764546    1.16691429035320
H          -1.34715774771304   -0.13936607985739    1.73458163536421
H          -2.04371296128339    1.43375697987375    1.46116804729473
H          -0.35920066508428    1.20161840568240    1.23628274315163
H          -1.43695466707123    0.52829644113956    0.15234437998701
