    26
        -50.47418136  Gyration_radius:  2.41008487083 Dipole_moment: 3.451
 S          -1.03081750074174   -1.00234829614442   -1.33147628345581
O          -1.91191315536691   -0.60634926321087   -0.24071696510211
O          -0.49000553780025    0.15478949313391   -2.02832000851012
O          -0.01460918780303   -1.95177083782007   -0.93203121809378
O          -1.94756795109997   -1.76163199866517   -2.37430399201149
H          -2.64373062086180   -1.13258598327283   -2.52863828878846
O           2.23334866647784    0.92382755071085    0.52652515165630
H           2.38946814102807    0.27696560955679   -0.20034182284266
H           1.66837492470623    1.60435688463510    0.12323000825443
O           2.19167877490221   -0.65922192203420   -1.61853045995759
H           1.49549469297538   -1.29442433453858   -1.36333282303594
H           1.76728373367621   -0.10994725476311   -2.28403746250809
O           0.22600755159644    2.31176841403384   -0.76733189092301
H           0.25095286578126    3.01742922166448   -1.41492518063140
H          -0.05508866341132    1.49629576427985   -1.25772076667270
O          -0.69604390751306   -2.14411455021979    1.58472854454946
H          -1.48701859055097   -1.69340935473469    1.24774801469812
H          -0.24378292646178   -2.38385284374556    0.75415550881955
O          -1.43400882983272    1.54495656064947    1.26840434051019
H          -0.92797743888121    2.07875721701614    0.63295649730837
H          -1.78007233950955    0.79888885739586    0.73625467502175
N           0.50333086636091    0.10103132874678    2.32194208859318
H          -0.29458929461941    0.75960471177580    2.07331383637058
H           0.14099661651061   -0.87585482938973    2.12717697606140
H           1.30214956391426    0.34411850259160    1.65603369269085
H           0.78813954652290    0.20272135234939    3.28923780800213
