    26
        -50.47172709  Gyration_radius:  2.52517102546 Dipole_moment: 1.020
 S          -0.40148474015478   -0.87528257798681   -1.75436694237439
O          -1.64536553104148   -0.97405490995096   -1.00427786356403
O          -0.37788656343825    0.26591570773669   -2.64567754980915
O           0.75428246243193   -0.94646411475982   -0.87477501526073
O          -0.32419151317725   -2.15055018971657   -2.68910567646388
H          -0.76585451651692   -1.83740766323304   -3.47106922876462
O           2.31350008779994    1.17226969637066   -0.10902123051349
H           1.97642449931791    0.33975441414343   -0.47908814928026
H           1.66810062669308    1.83620194128760   -0.39621917353676
O           2.26665799592998    0.67310125624298    2.50482374607120
H           2.36638777445661    0.97798786632136    1.56902456278040
H           3.09555247295091    0.25199342054841    2.73496320589622
O           0.07600238978146    2.39709251738414   -1.21715936890452
H          -0.01473384490491    3.17461181143022   -1.77051212494544
H          -0.06539131427125    1.61799793943044   -1.81054077940976
O          -1.76337385434202   -2.45590909080853    1.23926522794759
H          -2.65642426759286   -2.78421617047788    1.34815194061892
H          -1.74735109930036   -1.99828426329403    0.37388119549783
O          -1.69378509336739    1.24342803407985    0.53156430011417
H          -1.13696859091890    1.85521787966970    0.02021870615599
H          -1.91221086628448    0.51796366421676   -0.08223109729548
N           0.00529769117695   -0.46580730322566    1.63365909478660
H           0.37227424768885   -0.75698690666995    0.69534510074035
H          -0.51636814110962   -1.26441136751373    2.01093385594404
H           0.80111196478966   -0.12961563867444    2.21570975319929
H          -0.67420227660854    0.31545401749690    1.42650349036369
