    26
        -50.46873357  Gyration_radius:  2.55128759313 Dipole_moment: 1.241
 S          -1.43587890780494   -1.08519067509968   -1.22727891690187
O          -1.50086608155552   -2.51413094477115   -1.41951817578546
O          -1.53480434348768   -0.71181800727059    0.18666497884793
O          -0.29146167252743   -0.45887169071542   -1.85690354145659
O          -2.71570247000098   -0.46302160161051   -1.93039968305270
H          -3.41798589606986   -1.06012691814813   -1.69036959240006
O           2.12972628893966    1.04579276906947    0.80942456167566
H           1.69120142144166    1.41749433118319    1.60579037971679
H           1.67370363175440    1.45649773081132    0.05121264251528
O           0.48243681365968    1.78940264375309    2.77611414753013
H          -0.29179026659116    1.82154344090836    2.15914298949553
H           0.45902474317100    2.60742733977606    3.27317432603850
O           0.48293375695618    1.92889812091882   -1.19241923144359
H           0.68152877912034    2.39986623115152   -2.00270753516059
H           0.17312923069072    1.02899821669990   -1.46746242570488
O           1.11276035535567   -2.80505873790697   -1.22014353844531
H           0.14114885793300   -2.90695412873550   -1.32237531126870
H           1.35944535515851   -2.19348905925614   -1.92023133798734
O          -1.37070511544005    1.88801675179431    0.88012163086048
H          -0.81492253160945    2.16207594618726    0.13487284568276
H          -1.59201757677972    0.95762260614438    0.69245666800978
N           0.92725121831221   -1.27258272294456    0.95479914621012
H           1.50713259979781   -0.36609088303904    0.88320167367556
H          -0.08371310739541   -1.02539126739033    0.80383417594389
H           1.17169832430594   -1.93755647176328    0.17454703579196
H           1.05672655266552   -1.70335302974790    1.86445210759902
