    26
        -50.47165204  Gyration_radius:  2.41806759394 Dipole_moment: 3.344
 S           0.50417133989138   -0.80188447811299   -0.97424572070683
O          -0.87471293688663   -0.77257024330536   -0.47563608444401
O           1.11575578486289    0.52106901570067   -0.82193906603430
O           1.27335152417747   -1.84221421148753   -0.31897486909610
O           0.45335076725960   -1.12685635575234   -2.48585828183353
H           0.61859864390193   -0.29137046637261   -3.00229289388367
O           0.82933256718917    1.19265855842812   -3.61637174078749
H           0.05869283577193    1.62980848473663   -3.20336825126564
H           1.59734726877819    1.49994130681583   -3.12587417021717
O           1.13464497694348    1.09714147957572    1.79626083562161
H           1.34249536734758    0.99925950497443    0.84533606884648
H           0.18822525253180    1.34674644847964    1.80204982665596
O          -1.04168390157010    1.73991472314181   -1.73084335604962
H          -1.64421275842596    0.99069120096322   -1.74794158503515
H          -0.23626586211941    1.40459029645019   -1.28406584745538
O          -1.48913684753538    1.23280232981671    1.17661607228496
H          -1.30436913073950    0.50747057055678    0.54044363727819
H          -1.68754949117122    1.99987773228037    0.63278309778570
O          -1.71166427903483   -1.65501218228434    1.92928763211540
H          -1.55068150758311   -1.55940922902747    0.96958382948715
H          -2.13298906085261   -0.83040117125395    2.19264057716760
N           0.92534640153256   -1.47438451259187    2.21816953044687
H           1.09925276725446   -0.42026662655183    2.24015776363626
H           1.16137934827083   -1.75990811792090    1.21858114554556
H           1.47891443843161   -1.98124523174816    2.89938762007550
H          -0.10759349821079   -1.64644880550325    2.32611421986456
