    26
        -50.46692876  Gyration_radius:  2.49808241616 Dipole_moment: 3.170
 S           0.38528428053151   -0.90020398813771   -1.85312376315406
O           1.80634452736921   -0.68654773722183   -1.74800960453828
O          -0.08062169728314   -1.99989431560150   -1.01782025122233
O          -0.43004177912259    0.29108908464508   -1.63989070116024
O           0.10146165744392   -1.31828741307081   -3.35755709861774
H           0.85272192909421   -1.85843704917190   -3.58193033448323
O           1.62417651091886    1.90533042011041   -1.02616324928836
H           0.73719605269374    1.65903882918276   -1.33007224302511
H           2.14790604614114    1.13311291839163   -1.28532877685836
O           1.23645008713236    1.41277940470272    1.59353448903771
H           1.47299967678969    1.72588706342076    0.69298376886234
H           1.29582467404068    0.44273624152596    1.54791495074221
O           1.46127459605852   -1.27782688553179    1.03276741483893
H           0.97574634123129   -1.54927790196448    0.23083652186485
H           2.38595989962144   -1.28843451474377    0.77610269282275
O          -1.36009962781897   -2.08839685243780    1.34458184075355
H          -1.00788377752173   -2.31421056098722    0.46257448930327
H          -0.57917803061868   -1.98718753203231    1.89925046603216
O          -1.19649192405031    2.24987609812038    1.88547905785054
H          -1.17522972951742    3.13863488458712    1.52706749067499
H          -0.24126529792903    1.94483358067312    1.89763638903909
N          -2.10491780933596    0.27800331158447    0.39089080908139
H          -3.08174235247199    0.33994817602893    0.12531131778571
H          -1.48933139942094    0.28735712265471   -0.46849381512454
H          -1.82387315300814    1.09538790432319    1.01171130558656
H          -1.91266970096315   -0.63531029908453    0.88974683319096
