    26
        -50.46777239  Gyration_radius:  2.60721414006 Dipole_moment: 3.708
 S          -0.30660974113542   -0.17412958854497   -1.06968502084407
O          -0.84754074913413    0.66814269026716    0.01021469309935
O           0.82832314254231    0.49351787078296   -1.70802551510377
O           0.05145542718132   -1.48684372911682   -0.57335949668562
O          -1.41706711585000   -0.37369717884963   -2.12701022968970
H          -1.60846373637981    0.50471767056533   -2.56144126993266
O           2.60436548329904   -0.54251809579685   -0.06286373794083
H           2.34313543410308   -1.46406365079168   -0.15768540261131
H           2.11065495190079   -0.08901771424974   -0.78263245924459
O           0.02348712189746   -1.54704016504091    3.42243283037886
H          -0.68045099894006   -1.29081319054316    4.02091658006576
H          -0.41960273389938   -2.05725356069031    2.69595367266802
O          -1.69285867910393    1.96301184507629   -3.23933011904196
H          -1.20416149110732    2.50964106128357   -2.57458421953872
H          -1.15339376098393    1.95881156727003   -4.03303007364970
O          -1.19966186299703   -2.67625259760228    1.38682676269889
H          -1.10868923306846   -3.60668044655623    1.17437307779244
H          -0.80810344728134   -2.19103338614376    0.62118773006183
O          -0.15704992956761    2.91681305183292   -1.30667727780647
H          -0.66213247695726    2.50499006344134   -0.59075562020399
H           0.47367497845311    2.21293549496741   -1.55111515221109
N           0.97732287231750    0.36761230528842    1.82643867164099
H           1.74978245904060   -0.00603212506775    1.20367031103696
H           0.15747312544018    0.54554725878654    1.16300171506067
H           0.67978053207109   -0.36451786540356    2.52587588455641
H           1.26633042815621    1.22415243483808    2.28730367544947
