    26
        -50.46923806  Gyration_radius:  2.48042014777 Dipole_moment: 2.938
 S           2.03690464707208    0.98856256860343   -0.07223960079051
O           2.82495466178580   -0.05965613710586    0.52524400857521
O           1.85750380330152    0.83693706387615   -1.50804434786134
O           0.76537862579914    1.22124722792082    0.60495671918849
O           2.85758332060032    2.33503038210566    0.13471833250150
H           3.72887057656615    2.05820642447722   -0.12771389016941
O           1.06403667568742   -2.05747294940141    0.39994477591787
H           0.68595854381249   -1.88022901817737    1.27011542920752
H           1.81220783166610   -1.43529935620358    0.33105157775256
O          -1.12923863728731   -1.92665445801312   -1.10804876280423
H          -1.71753610848118   -1.60483437706180   -0.40456784879575
H          -0.27443487315006   -2.11086013679273   -0.65509924511753
O          -1.72356869405320    1.72074504699673   -0.27414078868443
H          -2.17724805875116    0.99851310666112    0.18801802188116
H          -0.83471281577153    1.75521954840915    0.12984599724882
O          -2.40633697609887   -0.66937125714904    1.03385008825912
H          -3.09972304152611   -1.03956611566563    1.58126785587112
H          -1.59802415223315   -0.62187708671601    1.59068993575669
O          -0.10629068736777   -0.43929361895039    2.40478772273609
H           0.29398148316240    0.18807794425704    1.74937430036095
H           0.07763288244229   -0.07025315572217    3.26962435328719
N          -0.59684482838437    0.36750722266494   -2.24731181396465
H          -1.16231855003071    1.01464768269866   -1.63279557744107
H           0.42361987096591    0.55738235773465   -2.02483236306294
H          -0.81614777281977   -0.62899807845883   -1.92535068017556
H          -0.78620772690612    0.50228916901230   -3.23334418967700
