    26
        -50.47127549  Gyration_radius:  2.42898245856 Dipole_moment: 2.395
 S           0.45237257476799   -1.66486201639016    0.46427935770349
O           1.19813028498863   -0.41824416540002    0.51867670617905
O           0.46962073953086   -2.40920253536073    1.69615683596390
O          -0.87421063243473   -1.45634351217730   -0.09896171993291
O           1.21802128298171   -2.58330426743207   -0.59917774081056
H           1.65326207281290   -3.22763307931399   -0.04982904711281
O           2.01810747000755    1.64639299071759   -0.99196439575945
H           2.14665701710927    2.31001662202454   -0.31125916726952
H           1.81779025924659    0.81735368571795   -0.51815293060993
O          -1.12845136328426   -0.59017733182403    2.79947353842264
H          -0.51747597815803   -1.27042411088266    2.45786143807131
H          -1.79892290934069   -1.06717444741161    3.29209188954859
O          -0.30338014095070    1.68559625675488   -2.33733956790356
H          -0.28451686577785    0.77245147562584   -2.68878215588655
H           0.60489762072096    1.82871941111922   -1.99504335542245
O           0.16143575435505    1.62181048269892    1.90092123148579
H          -0.30365403709388    1.11990710921832    2.58572001205709
H           0.73810578185376    0.94973166042525    1.48717970257952
O          -0.10881704297001   -0.99309323779824   -2.63158190994906
H          -0.46913825615151   -1.26218833649597   -1.76792324851698
H           0.75413581761619   -1.40781972848038   -2.68685410400403
N          -1.51667274638965    1.13538576952303   -0.10083673898848
H          -1.40079873520272    0.09492034829072   -0.06718369308204
H          -1.09440077075069    1.46068191787312   -1.04253502408732
H          -2.49334197554532    1.39228591203306   -0.01454502925945
H          -0.93875523193790    1.51521315694214    0.69960912659251
