    26
        -50.46837069  Gyration_radius:  2.48011054224 Dipole_moment: 2.833
 S          -0.03088268036071    1.28813959447178    1.84421892026246
O          -0.97263797976678    2.28601199885204    1.38089242404740
O          -0.64586648713660    0.01863926474412    2.15679118004438
O           1.11933040506463    1.12175282809895    0.95431945593953
O           0.58452412668596    1.86271286828001    3.19183567935015
H          -0.18928462484759    2.22293658265577    3.61115199479983
O           1.12157696700377   -0.87769773103651   -2.35367865108035
H           1.56021423072157   -0.90981151972168   -3.20398080534322
H           0.95178799934359    0.09194850535792   -2.15803503330857
O          -1.95883383311222    1.24270207997555   -0.77349552959483
H          -1.62691720191603    1.63013673783841    0.07543807600239
H          -2.85573692774999    1.56449544599985   -0.87933003214635
O           0.62335383526721    1.57259971156773   -1.65185672542579
H          -0.34475172182573    1.61613872815416   -1.59912818124245
H           0.91365760066795    1.58118213413273   -0.71944281439488
O          -0.58513954382610   -2.39869208745492    1.05713077671190
H          -1.08140002749902   -2.21772633984396    0.22531366529551
H          -0.77603352443602   -1.62801437979586    1.62787445392774
O          -1.46291735932829   -1.43852514080769   -1.27102813662721
H          -1.71939430388613   -0.52215357203397   -1.07064615230818
H          -0.65866858538123   -1.37481705387391   -1.80363020188103
N           1.63928064847098   -1.36084402997078    0.27092078434025
H           1.60360573102199   -1.32931491753349   -0.76615932051740
H           1.50431679756377   -0.37085273204179    0.62086566161889
H           0.77252638213593   -1.92302053688675    0.62948722111870
H           2.51429009712494   -1.74792643912779    0.60417130041117
