    26
        -50.46936501  Gyration_radius:  2.43008436456 Dipole_moment: 1.233
 S          -1.11479590416048    0.97413607046713   -1.14409883969216
O          -1.15607914623329   -0.47047165744666   -1.33387651169776
O          -1.61947815047041    1.33037636264558    0.17833398183056
O           0.17405642573685    1.55029193091109   -1.43420400710143
O          -2.12795433009095    1.58652963989286   -2.18966425891588
H          -2.94066581553554    1.14167993925310   -1.97325039095984
O           2.21697734723855   -0.10614603137375   -1.41378476760544
H           1.44061641606832    0.49748641697261   -1.47899221976875
H           2.86700704541821    0.22527935638422   -2.03499175988445
O           1.91645726503216   -0.24267632700851    1.29619002041021
H           1.55127814434617    0.66024289963591    1.43331130708286
H           2.26471644086284   -0.24507546591892    0.38741551755011
O           0.66913463612479    2.13212626506480    1.27093947245007
H           1.07875593918916    2.59866167022248    0.53789391617910
H          -0.22221743420744    1.90542832546620    0.94077249431593
O           0.76629795382245   -2.55812307755553   -1.46835186312318
H           1.48074602270817   -1.90750611252835   -1.48272056447766
H          -0.00486998403734   -2.07444701317065   -1.78437392610715
O          -2.02761114951636   -0.12044629835834    2.39052862706393
H          -2.03634943965431    0.45296275470386    1.59692206608867
H          -1.66762573657927    0.42202537064798    3.09544057366100
N          -0.30846273947024   -1.57484987219528    0.93766683770207
H          -0.65014481376621   -1.19741231046494    0.01765393780062
H          -0.99206633665666   -1.28051661738365    1.66639901092038
H          -0.20045159684480   -2.58189760055027    0.85018991417745
H           0.64272896067406   -1.11765860830319    1.13865141209606
