    26
        -50.47427234  Gyration_radius:  2.41160594601 Dipole_moment: 3.231
 S          -0.02806393990695   -0.84811087588120   -1.76406708909159
O          -1.37382756116547   -0.86381778724407   -1.21490873679859
O           0.46790933025736    0.51853376286465   -1.91267112410951
O           0.89057187028402   -1.71107102436015   -1.06014700780533
O          -0.14570026686144   -1.42891896557992   -3.23156658834187
H          -0.83133273137560   -0.88851259170711   -3.60854317948129
O           2.73707155598502    0.18339777697430   -0.50517156210396
H           2.65762329334081   -0.77660815898556   -0.48244027237692
H           2.04765043661256    0.44521540815778   -1.14098213413789
O           1.45770035839036    1.21987065540767    1.59111793526497
H           2.07429191775743    0.81723908500753    0.93557489375880
H           0.94673532603994    1.86342519850547    1.07091774760845
O          -0.13933564129742    2.47502031902519   -0.28699594671746
H           0.07119807860924    1.75151425147260   -0.92745055944737
H           0.07075586946367    3.29545514548994   -0.73521377452630
O          -0.66636404028781   -2.56260524522839    0.84655825320520
H          -1.47211364674187   -2.39017860412353    0.34618414306446
H           0.04058401998471   -2.40257847588257    0.18233880910502
O          -2.21157665105634    0.90059578818816    0.59017034523450
H          -2.05325842511585    0.25194031426912   -0.12892616220620
H          -1.68461812227227    1.67582255529679    0.33825502480324
N          -0.56860975256714   -0.31347608259898    2.25020216415977
H          -0.76270327482382   -0.37153367317264    3.24327306550705
H          -0.52377647561580   -1.27588674494803    1.81079813240194
H          -1.33541929221892    0.20922556201021    1.72722378800409
H           0.33460774457847    0.22604241704279    2.06646984502925
