    26
        -50.46903281  Gyration_radius:  2.50546748365 Dipole_moment: 1.906
 S          -1.24792598829157    1.77464798255074    0.20940065586349
O          -2.05993722331827    0.71941757431870    0.79776188297771
O           0.14852231765631    1.67215535726057    0.65877278388766
O          -1.34528335467113    1.87260914579455   -1.21956255091979
O          -1.79317693011592    3.13082233596356    0.81370080402520
H          -1.83972207076074    2.94877719056749    1.74693912806116
O          -0.15281804253517   -0.17625030484627    2.55524848656060
H          -1.10640393828854   -0.20134481545704    2.41650778877039
H           0.14153152173652    0.53688682983799    1.95825760294109
O          -1.60367929649966   -1.44785577756107   -0.59283314494547
H          -2.43182321581376   -1.92452808435344   -0.67203699030684
H          -1.80680885974425   -0.62982170904493   -0.07598019741052
O           0.50679389800675   -2.29722477575036    1.01063096764293
H           0.33665043396790   -1.62864325563738    1.70782290430136
H          -0.20419543001450   -2.16912541635347    0.36298671285546
O          -0.36067782678370   -0.13982833901237   -2.64572039144541
H          -0.83109053724426    0.67386544826070   -2.37467137719232
H          -0.77586937426838   -0.83632510169303   -2.10767346352497
O           2.79537125408807   -1.48805812249748    0.06580910456303
H           1.95220518251036   -1.91608579538272    0.38872704742908
H           3.31911116917653   -1.32860493995362    0.85248313830538
N           1.69460084489374    0.57747536342552   -1.17829138014208
H           1.14237965469506    1.08787464788572   -0.43942307995301
H           2.34297252711321    1.20941254173309   -1.63490167110091
H           2.20598563551723   -0.23284913879941   -0.72608417929235
H           0.97328762899652    0.21260115874633   -1.87787059195151
