    26
        -50.46999515  Gyration_radius:  2.45722681513 Dipole_moment: 2.432
 S           1.06722613108996   -1.47974279309421   -0.47726772027896
O           0.82590455687133   -1.69308445714598    0.94398494332164
O          -0.12167183949308   -1.75901951179952   -1.26610343465339
O           1.64236250632619   -0.18031582245497   -0.74672695833899
O           2.13779237499771   -2.55088693832605   -0.92849844304819
H           1.57580759652347   -3.30523146525818   -1.06528556479775
O           0.50987613822773    1.16993325841380   -2.75630273702402
H           0.92441829922821    0.58742102479470   -2.08766009070393
H           1.22060054256063    1.70366447899161   -3.11572124628833
O           0.88618785154386    0.21085877221066    2.82058334095358
H           0.98315587018962   -0.50181032187527    2.15401782788613
H           1.67592868510028    0.18336464653652    3.36201051912189
O           0.86790250222308    1.98720881687874    0.71494408929822
H           1.29286968818015    1.30168980794785    0.17139718913404
H           0.78078327006074    1.58297709388059    1.59297103977509
O          -1.57775570911212   -1.02641381410187    1.96281405736372
H          -0.78045064446414   -1.47964995504100    1.62396402217510
H          -1.23432512946810   -0.39073059487170    2.60044776791529
O          -1.19019556057059    2.21648385722965   -0.94891875209655
H          -0.50278539904767    2.31635493004640   -0.24967087392102
H          -0.67429406258949    2.00620764880384   -1.75484762566145
N          -2.08705278836746   -0.17818620831458   -0.51405330622255
H          -1.79326079516079    0.85408014745357   -0.67875753656585
H          -2.99542418855698   -0.36627744493481   -0.92358743177743
H          -1.35401831893943   -0.80182727657901   -0.94405154136684
H          -2.07958158735381   -0.40706788939207    0.51031844580075
