    26
        -50.46846773  Gyration_radius:  2.4331761637 Dipole_moment: 3.929
 S           0.13744852464631   -0.66925020510311   -1.70419946994113
O          -1.24510985139600   -1.04508590500642   -1.41044007637590
O           0.21486285125806    0.57299741282118   -2.44759988066194
O           0.96341668275488   -0.70121207200511   -0.52282680000319
O           0.69738144079150   -1.78988778952947   -2.67740378880802
H           0.29031430230973   -1.54859016599755   -3.50271752419895
O           2.12914508221499    1.62002981345941    0.22156320084810
H           1.81715191590697    0.82931490647234   -0.25423699924698
H           1.50363481584680    2.31316513400563   -0.02070043086598
O           2.00002791919122   -0.32642415020984    2.05635601900051
H           2.18132963915744    0.53520116561884    1.62469823183479
H           2.07106601317603   -0.95511997803771    1.32770735986844
O          -0.10466761632782    2.75291017770872   -1.06095880780683
H          -0.41950170149274    3.45661892970004   -1.63024072968173
H           0.07058304979407    1.97782215054287   -1.65169807824394
O          -1.29780292872465   -2.60877622728760    0.69033057170803
H          -2.18102647573411   -2.98113802405972    0.65628595019473
H          -1.19690168290473   -2.08784130364111   -0.14230344112908
O          -1.69344893233396    0.99505947199309    0.26149026142082
H          -1.18191616050142    1.74408865396765   -0.09862269247725
H          -1.65547787607930    0.29477075611166   -0.41909214157113
N          -0.62632669970198   -0.47082717481386    2.17166625077469
H          -1.02851050959515    0.24201234689358    1.49352914083676
H          -0.85762170241259   -1.40185442967973    1.74976114764908
H           0.43833392772838   -0.37629139966802    2.19182753160638
H          -1.02638402756534   -0.37169211425797    3.09782520526957
