    26
        -50.47371641  Gyration_radius:  2.37472997134 Dipole_moment: 3.044
 S          -0.26059400951049   -0.96070671804987    1.22097219496662
O          -1.31734918598294   -0.93473498210714    0.19523101154909
O           1.04900620927843   -0.98204993082516    0.58123237059343
O          -0.39930114011677    0.12068112505252    2.16741087827560
O          -0.42343569396688   -2.29324810011011    2.02192958190947
H          -0.33535448992315   -2.99123899383850    1.35001493371405
O          -1.10390682175206   -0.62858288189409   -2.47963281434548
H          -1.30929602501741   -1.47883513341990   -2.87256007425964
H          -1.32508245017160   -0.69829518083155   -1.53233617741549
O           1.79614038094946    1.50722835792854    1.77178140888480
H           0.99424381677050    1.04736107684387    2.10718614527127
H           2.34148773076635    0.79138578296998    1.43027807287273
O          -1.85930326853783    1.67205624730771    0.47166848994134
H          -1.74128655279308    1.67746155266508    1.42858198969712
H          -1.84137001926074    0.71953501197372    0.25429045313304
O           1.29590301208718    0.32699258431078   -1.72621742867703
H           0.51294188847888    0.00853652079425   -2.21769318406694
H           1.32501130557518   -0.22014256499878   -0.91206063441811
O          -0.15005994487562   -3.26438221893338   -0.45464012158761
H          -0.75455769145294   -2.50489787711063   -0.45976936193200
H           0.73342813132999   -2.88630958846096   -0.52030445748832
N           0.55317572264984    2.43041089212241   -0.37842418943920
H           1.11917632824164    2.25243229273599    0.49921958010152
H           0.68994061239814    3.36692942650694   -0.74116953042041
H           0.86894563377018    1.67408541602004   -1.07240029813822
H          -0.45850344933063    2.24832787332810   -0.13258883892656
