    26
        -50.47191014  Gyration_radius:  2.4694030194 Dipole_moment: 1.446
 S           0.56804851452721   -1.78922724770381    0.66081416201835
O           0.29026756522925   -2.14763923505547    2.02975606220894
O          -0.62901455525448   -1.44992628874619   -0.09988274242413
O           1.60097257167995   -0.78373619338251    0.49704560278173
O           1.15739051371335   -3.11272215703531   -0.01110172250040
H           0.90104831601366   -3.79454530449293    0.60118634079614
O          -1.05822177552320    2.18253539988148    1.17403047439576
H          -1.01055230957059    1.50479376989526    1.87711263608137
H          -1.63001425334593    1.79250352329397    0.49001878120868
O          -0.77225847694237    0.11563549805171    2.88115779865146
H          -0.43467757414547   -0.74302145783309    2.55222365913498
H          -0.47898575394241    0.18092615824048    3.79167730039596
O           0.05643358145869    1.29826698742748   -2.53309834803290
H          -0.84242527916808    1.18488123334200   -2.18358832454602
H           0.39149782538639    0.38636172883753   -2.66671158845334
O          -2.06898653375480    0.62821465241543   -0.85644897439426
H          -1.55071170621293   -0.14687729880429   -0.54249043717933
H          -2.96020742652803    0.30548755671087   -0.99638885436643
O           0.87845745809546   -1.25072941215713   -2.28014016495215
H           0.25998082348877   -1.42598095869007   -1.54730371584729
H           1.74262351966999   -1.46964586731133   -1.92620739093415
N           1.14302244509470    1.72757552456689   -0.17940092690975
H           0.31885390131935    2.03895104033021    0.42409836780546
H           1.39008634244383    0.74795101125106    0.11459688553855
H           0.79749969106149    1.67421861371140   -1.18798625447888
H           1.93987258521331    2.34574871326872   -0.08296864598188
