    26
        -50.46658234  Gyration_radius:  2.4918223387 Dipole_moment: 2.504
 S          -0.18893868894599    0.93843854413921   -1.93332249192863
O          -1.29284788560477    1.60532322672655   -1.27170968197479
O           1.10131396177064    1.46987558440932   -1.50976790196887
O          -0.24267346740706   -0.50726439140301   -1.83639482849389
O          -0.33000945105764    1.27984348517683   -3.47341207139275
H          -0.45416159333100    2.22140112667567   -3.42958599214603
O           1.08778714436098    0.77929544042738    2.67124645113398
H           0.31533561168120    1.21152771732105    2.26154519050643
H           0.76186035780567   -0.06933511428694    2.98646614999424
O          -1.16456627851018    1.39086246784192    1.29542438732058
H          -1.18481956113543    1.49074261622328    0.30673512375734
H          -1.98381230463860    1.78060567035692    1.60595647805942
O          -0.95659227656892   -1.36041163485939    1.54594856425870
H          -1.04669880871754   -0.39195182873391    1.50992784652200
H          -1.61151062117724   -1.66780090737396    0.89258045552193
O           1.07936227107859   -2.03014596829243   -0.05757091969785
H           0.64982743763278   -1.67630303177233   -0.85920838003722
H           0.38267317668330   -1.94548238583188    0.63573958060304
O          -2.37209283514416   -1.71428258253345   -0.74524209681815
H          -1.68573153768188   -1.18340540949377   -1.19776627569489
H          -2.47871812334943   -2.50913587488147   -1.26991930551139
N           2.35566584210711    0.18563819920139    0.38320212950245
H           1.90512380639570    0.77023364169503   -0.38064724268173
H           2.00459594326974    0.51012744303073    1.31714482753678
H           1.98356462630847   -0.81322511123429    0.22791043686512
H           3.36606326417668    0.23482906746956    0.32471955676223
