    26
        -50.46641733  Gyration_radius:  2.4829931892 Dipole_moment: 2.478
 S           1.30355893985796   -0.53102189260777   -1.35400670581512
O           0.11512774476526    0.07471648118649   -1.93672348746474
O           2.08063008234332    0.43839273705723   -0.60265988489733
O           0.98799574270029   -1.73649391225652   -0.61163992302758
O           2.21702220844747   -0.99676384764586   -2.56316755878351
H           2.47274639491653   -0.17777161802530   -2.97661248261158
O           2.08525244027493   -0.94676818843619    1.66798000418167
H           1.73084132002366   -1.58499028248785    1.02500203972086
H           2.44506942629849   -0.25826730345360    1.08526188262660
O          -0.14652568450401    0.23133961381420    2.33853114019007
H          -0.45542274026978   -0.10245875412954    3.18168523973089
H           0.72483448887122   -0.22391154126266    2.16030547082893
O          -2.17251886789863    2.59807336756288   -0.36678295203661
H          -2.16627769382371    2.84841197113789   -1.29189998083788
H          -1.23858671330183    2.66859511641492   -0.06813647821055
O          -1.53820529609443   -2.63062146128666   -0.30303806216173
H          -1.66321573241170   -3.42934040849495   -0.81618892012662
H          -0.59735369015426   -2.38450106598830   -0.41354886534847
O           0.39173328326584    2.30465830170438    0.43897174834220
H           1.02738246308997    1.74259586371514   -0.04000946106270
H           0.30841665948385    1.90653466575426    1.31351422069018
N          -1.61067524197316    0.03093024152408    0.03858058140715
H          -0.91890504141540    0.05497793077849   -0.76416300675410
H          -2.18580078610285    0.89446957286725   -0.05519632647121
H          -2.11075753639445   -0.86246206181570   -0.02546775140640
H          -1.08636615000126    0.07167647437075    0.93940950929377
