    26
        -50.46734917  Gyration_radius:  2.44260148773 Dipole_moment: 1.667
 S           0.69683554596468   -0.82669650160548   -1.53977518804239
O          -0.09903736492458    0.30060503075928   -2.00752264651424
O           2.06491642439911   -0.48388203950030   -1.24915710574038
O           0.02405459462341   -1.50095635753727   -0.43055580659343
O           0.73736833380357   -1.88760884222463   -2.71394055038417
H           1.53911329859751   -1.66127127719051   -3.17389941855794
O           1.71314807808487   -0.85408416227311    1.54904344777746
H           1.15129436930680   -1.17548950222654    0.81837680058054
H           2.56800300738439   -0.70421009005151    1.13849819688507
O           0.36091247588386    1.49150623213117    1.80416325024192
H           0.70975369813867    1.91599305352657    0.98954212674633
H           0.93228240282613    0.70985949069195    1.94315945476857
O          -2.44336944401065    1.45640620925245   -1.41401127046629
H          -1.66577478958081    1.00223722049743   -1.79675422813168
H          -2.29009839000804    2.39375045553780   -1.54754511153510
O          -1.01733547676303   -2.11417587878103    2.21784953844938
H          -0.77211103585458   -2.41709247472332    1.33758953403177
H          -0.19100259997717   -1.85549467099100    2.63549730179189
O           1.28192171296816    2.10922871346933   -0.63733544619280
H           0.70983367108665    1.57460272169947   -1.21930089574889
H           2.13509345569924    1.66877535839991   -0.70013500077847
N          -1.66346017939155    0.17913465160611    0.80829070098022
H          -1.10261993988901   -0.52079291466659    0.26839578795052
H          -2.21772822497674    0.73169378781372    0.12206662129130
H          -2.22183463445560   -0.33177673903829    1.49023103159881
H          -0.94015896893037    0.79973852541802    1.30722886559390
