    26
        -50.47771717  Gyration_radius:  2.36996077011 Dipole_moment: 4.705
 S          -0.07058434089979   -0.39913461351059   -1.41535892786140
O          -1.22455063958670    0.27431930453122   -0.81512029615686
O           1.17302284241750    0.07555880023546   -0.79369812404586
O          -0.17490648172606   -1.83824737018829   -1.32683095119957
O          -0.01323265686303   -0.00120595121336   -2.91473003250314
H          -0.10211639573543    0.97959335804752   -2.88494362205636
O           1.36976833723551    2.55564317841915   -0.05487419136170
H           2.28341840578469    2.84361794086194   -0.06833135498072
H           1.37278877152545    1.60860841426323   -0.34070022126679
O           1.79544516742057   -2.00701396716554    0.65910488381161
H           1.40837470453883   -2.67477052681222    0.08250858453370
H           1.75255587019870   -1.19017293303540    0.11172917559312
O          -0.46457678713940    2.47140220940930   -2.15821011911152
H           0.20253592812883    2.78890862564899   -1.52707857336315
H          -1.09891864386297    1.97280071196154   -1.62130369433510
O          -2.02983737216298   -2.03799228843373    0.51805839289948
H          -2.51224991497241   -1.23905964522092    0.28031488142274
H          -1.39448512481999   -2.14677125512123   -0.22679099786388
O          -0.55847747845044    1.27399319036031    1.53772227994898
H           0.14959154424342    1.88896957543268    1.29830327363171
H          -0.91381041934331    0.96830368980184    0.67341665291875
N          -0.18451321687416   -1.24026949140192    2.23366134995430
H          -1.00463326144564   -1.63957884764684    1.68667698968758
H          -0.20951873996548   -1.51173281812182    3.21011154372068
H           0.69086663652489   -1.58856173188906    1.74281885144562
H          -0.24195674414704   -0.18720754921552    2.11354426652950
