    26
        -50.47235963  Gyration_radius:  2.45377683967 Dipole_moment: 1.904
 S           0.35217460060254   -0.53928645718612   -2.00083677338631
O           0.49426103079771   -1.68592340810742   -1.10510202515536
O          -1.02510517016774   -0.10825741862986   -2.10367577384789
O           1.28207613170596    0.51931303955591   -1.66557424602659
O           0.75490001576541   -1.04781012711699   -3.44507070282337
H          -0.07121132719163   -1.43195601736564   -3.71551343126769
O           2.34913325154657   -0.80157749261967    0.56455577591408
H           1.68762145045997   -1.22417934466249   -0.02130684303956
H           2.82651824169562   -0.20866538930281   -0.02195792717190
O           0.95611518535594    0.89632702238102    2.08173741308948
H           1.53732287612276    0.22520048049509    1.65189195253289
H           0.88992764621334    1.61855320899501    1.43345241251103
O           0.54318423098798    2.48213887544061   -0.13582996616215
H           0.82541673728506    1.74989365008865   -0.74291035637155
H           0.94674241158093    3.28009270407016   -0.47996337954639
O          -1.05191172381131   -2.51823837324224    0.82548640065913
H          -0.56396158897176   -2.24150764054994    0.01384872934059
H          -0.44531232652916   -3.09149227409646    1.29878966423405
O          -2.00889953165932    1.46522830159280   -0.23687045592335
H          -1.78926532112376    0.88056162932097   -0.99664159296801
H          -1.25040021321521    2.07052450027231   -0.17811884320940
N          -1.46559950074313   -0.06625666186295    1.81854726159572
H          -1.38537003596230   -1.05957126860641    1.48783444260188
H          -1.81486285390490    0.53703309165384    1.00512604143075
H          -2.08763760565028    0.00298072041415    2.61558224463147
H          -0.48585659119640    0.29687463908042    2.05251998836077
