    26
        -50.47201776  Gyration_radius:  2.51709129687 Dipole_moment: 1.469
 S          -0.22427193164341   -1.14854694406036   -1.62053235559713
O          -0.20907330375973   -0.15959256180401   -2.67667893443330
O           0.89114791643640   -0.96142212404752   -0.69218949171338
O          -1.48699196805854   -1.25675916964664   -0.92098184210039
O           0.01072722661523   -2.54969712321213   -2.31718159699336
H           0.72067404233829   -2.35354673041342   -2.91906667378311
O           2.07997669103761    1.44934281605899   -0.21765001619180
H           1.85107940120578    0.53524702560139   -0.45857908385603
H           1.37577866072020    1.98239412816937   -0.61639107936969
O           1.97071868054065    1.32761202177371    2.43890317420448
H           2.07632295367470    1.50649415681912    1.47167991959716
H           2.83695201071192    1.07103311783216    2.75664183614274
O          -0.24530959650001    2.19072021746446   -1.55490540949279
H          -0.44634991074306    2.85316886926166   -2.21811515878227
H          -0.21730885063923    1.32393489784084   -2.03182710450012
O          -1.47621557603657   -2.51729282029860    1.45720085816723
H          -2.22288135040394   -3.11328175615556    1.52323036252704
H          -1.50556068130674   -2.14606910257983    0.55251452592358
O          -1.92304915008920    1.10800068534577    0.31836734896187
H          -2.04425151908984    0.29053037747888   -0.19657535679560
H          -1.41784377234428    1.70200301255803   -0.26390602513110
N          -0.07379637475705   -0.22652233224084    1.67352921059515
H          -0.83981034895621    0.41993299366011    1.34026355949142
H          -0.49727256377555   -1.02846471144370    2.14940616326827
H           0.37597637449929   -0.59289409625448    0.79837733782602
H           0.64063295032413    0.29367516229211    2.22446584203509
