    26
        -50.47359322  Gyration_radius:  2.46655592152 Dipole_moment: 1.482
 S           0.09884170879534   -0.93356635046606   -1.08260332883263
O          -0.41708188711174    0.25776959485761   -1.75502765086678
O           1.34428117205557   -0.63332948174370   -0.38632901994303
O          -0.87744000243134   -1.52568410567829   -0.18431668084265
O           0.39893348956426   -2.00417028890133   -2.17499451884320
H           0.87622263483681   -1.50599074612504   -2.86846540605824
O           0.88095982949127    1.89303941545866    0.29184683705285
H           0.54007927594086    2.30359683812809   -0.50586767891640
H           1.11825302756457    0.98258098498590    0.02024275035566
O           2.18121537266390   -0.59823341790997    2.13063089515929
H           2.05858354609982   -0.74797719026552    1.17016977270913
H           2.47142646878419    0.31438894000048    2.20701354846700
O           1.18997089474483   -0.07061013087219   -3.79465975660377
H           0.60276405284564    0.32086238529221   -3.11630199058404
H           0.73129918785529    0.00914362728051   -4.63412295702976
O          -2.59341526037948    0.71228244229247   -0.26890539613430
H          -2.81627077787555   -0.20930182461092   -0.11299604003411
H          -1.84810122383254    0.66934490156374   -0.89857211522596
O          -1.26789550171939    1.58491501562267    1.88987107662185
H          -0.45687960972714    1.88442040920375    1.42654909520547
H          -1.91006912219235    1.41232249729056    1.16489482661356
N          -0.46902816043453   -0.84256879265583    2.32695910300116
H          -0.90806203913103   -1.40138428927249    3.04960616515454
H          -0.85072743869106    0.17011523711375    2.29512043685609
H           0.57530881500320   -0.80059534866556    2.44312930039270
H          -0.65316845272149   -1.24137033192659    1.36712874232608
