    26
        -50.47117860  Gyration_radius:  2.50414627522 Dipole_moment: 3.660
 S           0.96708796956339   -0.62820561451364   -1.18048932836152
O           0.71135631333402    0.73803265067565   -1.64148727356293
O           1.06150637547561   -0.62747769286513    0.28950082046272
O          -0.02135078967201   -1.56908375579083   -1.64161077232718
O           2.35510257107553   -1.07694097512464   -1.72489518495166
H           2.95920632169313   -0.34953291252483   -1.47555985948413
O           3.20484801301504    1.31288357309340   -0.92951063481989
H           2.31445732111191    1.43093611229626   -1.30612706393425
H           3.13385226179414    1.54967961783227    0.00021893815417
O          -1.09077798169527    1.43655264699427    2.82488672504179
H          -0.71725602419772    1.39193671943475    3.70581303266929
H          -0.36879116220717    1.75207527674344    2.23579827463879
O          -1.91729592747942    0.57784544532041   -1.40993175253763
H          -2.12662405721626   -0.17347962474334   -1.97150026747117
H          -0.97365037372947    0.76951907649468   -1.59684219375975
O          -1.78959338664719   -2.90378619788982   -0.11394493280302
H          -1.14222393366261   -2.48348372629855   -0.71631189738481
H          -1.73270292027815   -3.84450523097654   -0.28420052329457
O           0.87855398347037    1.90134461920972    1.03494578422817
H           0.53505106645767    2.28345514078589    0.22222441411113
H           1.04497817169599    0.95737006243765    0.81959599385105
N          -1.48250265105127   -0.49298416081806    1.00061086039326
H          -1.82939839603367   -0.00392583285769    0.13378366421976
H          -0.45601644999461   -0.65469953945111    0.83066594304826
H          -1.58478113288845    0.11798957974117    1.83589317618606
H          -1.93303519180766   -1.41151526762762    1.05847405730108
