    26
        -50.47636603  Gyration_radius:  2.42315359485 Dipole_moment: 2.569
 S          -1.25149130247410   -0.32970267263881    0.93366481731781
O          -0.33024511927560   -1.19145920213051    1.65314872958747
O          -0.75102438277674    1.04762651688762    0.89449044341520
O          -1.54243196053074   -0.82676252972991   -0.40433684140172
O          -2.61404504638316   -0.30773954213401    1.69354955485595
H          -2.36282577404231    0.01276326926814    2.58054833423236
O           1.03283187659702    0.82132409813418   -2.58732024688761
H           1.47988422225641    1.09972157907983   -1.77002058003387
H           0.11458418667863    1.16607877658032   -2.49851515568771
O          -1.44100942156697    1.47135551402440   -1.79475473066628
H          -1.32613280662923    2.02923077497332   -1.01917981309444
H          -1.66617003301564    0.60066302207480   -1.41993423691013
O           1.99752725299198   -1.51716600672439    0.41336840560233
H           2.22715042676936   -0.57564964725519    0.35610845274349
H           1.20725511299653   -1.54048311517094    0.99429927723468
O          -0.99577254632534    0.60036566279691    3.57895263703210
H          -0.76005761119051    1.22090683461642    2.87667723478497
H          -0.49444262924494   -0.20215255437564    3.37830158033507
O           1.72173143266227    1.21846574771668    0.06054993709629
H           0.78525084555827    1.16751987671683    0.37741402187619
H           2.10879930944589    1.98360969157712    0.48894083245107
N           0.57519349817764   -1.62171455648611   -1.78479971991287
H           0.81449342964921   -0.69871902058751   -2.27810887955786
H           0.55133829729642   -2.41219764614621   -2.41825688586719
H           1.27032434130432   -1.74893992788638   -0.98723297191941
H          -0.35071560895181   -1.46694494310448   -1.31755419661112
