    26
        -50.47033482  Gyration_radius:  2.47644107182 Dipole_moment: 3.205
 S          -1.71336471075861   -0.32988238953345   -0.49650370410996
O          -0.69319197971941   -1.16958802870036   -1.14677727698475
O          -1.37613005330314   -0.18029282198409    0.92211992942027
O          -1.87616036176851    0.93745041710078   -1.15674384695203
O          -3.06684809855361   -1.09854898771885   -0.57024121743252
H          -2.84658181217906   -1.94730990392224   -0.13877972469131
O          -0.36317080488006    2.18977933615727    1.59551675135810
H          -1.04440682056759    2.80510161678280    1.87066355894855
H          -0.82942764117448    1.35647618825587    1.36585859624043
O           3.03083147410430   -0.67413722226405    0.12767240997507
H           2.36967868630327   -0.56846489098737    0.85719444545992
H           3.26110250378141   -1.60438806743847    0.11511748026479
O           0.24661616065001    2.52061119211440   -1.02874528954614
H          -0.63144295257382    2.13261293886371   -1.22567600351163
H           0.25004984656041    2.58631875266791   -0.05402432404121
O           1.09854924003974   -0.38520767277881    1.90839933172311
H           0.20225030300260   -0.44340382469068    1.51942673949219
H           1.13619504645204    0.50014315690022    2.28303098368484
O          -1.60165079027510   -2.97400225733508    0.59103022935825
H          -1.03230924645452   -2.57380035569857   -0.08858733371885
H          -1.40172981241763   -2.50511748391142    1.40676043021475
N           1.39780671382295    0.28537758860169   -1.75135881463615
H           2.15306608204356   -0.04600534961324   -1.09893827221043
H           1.07089149847975    1.27006017391954   -1.48145805518066
H           1.70332040995635    0.25959353362592   -2.71786252167920
H           0.55605710905760   -0.34337562868018   -1.60709448153914
