    26
        -50.46935584  Gyration_radius:  2.47745890204 Dipole_moment: 3.247
 S           0.04250684028187   -0.87537461159891   -1.56873692769721
O           1.13618250767700   -0.50385008504557   -0.67432185429440
O          -1.22431914392174   -0.87695403965750   -0.82869433383796
O          -0.00512533407740   -0.08159325461384   -2.76422749750787
O           0.30834591989869   -2.37180146139440   -1.98861678564109
H           0.36304290750118   -2.83661060554542   -1.14907372437437
O           1.93949668932947    2.23069637891332   -0.12894810500301
H           2.15433858727739    1.34901383171851   -0.45518817299035
H           1.22921473393812    2.53415246240500   -0.71404397676955
O           0.28462972232335   -1.44517852424838    3.00986301561252
H           1.11659379093952   -1.82410582022887    3.29732168543428
H          -0.00115675754750   -1.97162975561071    2.23440975729658
O          -0.27798606637165    2.37395681030245   -1.85734645913616
H          -0.16223800067357    1.47036428612435   -2.23492520231663
H          -0.42926949353995    2.95305008398125   -2.60688716127587
O          -0.50647178772976   -2.76247129977861    0.74853525778845
H          -1.24876877650715   -3.35178601441517    0.90098132922879
H          -0.86409448912521   -2.00813507963583    0.21214694652409
O          -1.90839994639632    1.50485166446504    0.19246329631194
H          -1.49317078265626    2.05739873982608   -0.49103212516316
H          -1.93684726264361    0.61514572002393   -0.20698251895081
N           0.29352770904664    0.77596677433702    1.45695606703539
H          -0.65777527271618    1.14038935998753    1.16926801759410
H           0.25874425394348    0.15610043909571    2.28556484124698
H           0.63110440113127    0.19499865854008    0.63665897262466
H           0.95789507073574    1.55340532199293    1.52485567825381
