    26
        -50.46816176  Gyration_radius:  2.53507720634 Dipole_moment: 2.205
 S          -0.73208682134524    0.15364695890928   -1.75790167035675
O          -1.21776273325724   -1.21053276692882   -1.79266418588209
O          -1.15354126676728    0.83587697708438   -0.53642104874640
O           0.69331492571535    0.26656833331264   -1.98924698976835
O          -1.42438465887314    0.92819295920383   -2.95253867613216
H          -2.35463090545559    0.82407331456226   -2.77823016337890
O           1.32128096133964   -1.96833481635097   -0.69053230476059
H           0.69559604868453   -2.58295913243929   -1.08434797349622
H           1.28517424018762   -1.17655226232155   -1.26153470436271
O           0.84920463510300    0.81625229765082    3.04327689003422
H           0.53288653164625    1.57481227093151    2.48372960643277
H           1.80434843518016    0.89616852675862    3.06922260780975
O           2.19993886771001    1.83218917504330   -0.43070032968549
H           2.73489869273243    2.37211216367607   -1.01416111903665
H           1.66618663249240    1.25483692113736   -1.01369123716219
O          -2.05701913423937   -2.55485723645866    0.36740170743462
H          -2.82919701739581   -3.07794651148687    0.15129961028056
H          -1.79853190569932   -2.09304231610536   -0.45678183371641
O           0.15818689052173    2.56694879874911    1.19481528645015
H          -0.51187729280303    2.13851122335607    0.64208098160121
H           0.97954365422048    2.48155313653788    0.67421074043885
N          -0.16193164305578   -0.86460621979017    1.25373672560062
H           0.25219525594239   -0.35960553121748    2.08062488952552
H          -0.61550558739392   -0.15418720517519    0.62969380103980
H           0.56329581834702   -1.34647461829759    0.66885781414269
H          -0.87958262357881   -1.55264443034083    1.49980156569879
