    26
        -50.47191580  Gyration_radius:  2.41578725792 Dipole_moment: 3.480
 S           0.70667618560475   -1.10416214020394    1.40995593820559
O          -0.69393085013575   -1.38738867500363    1.12219736700119
O           1.61249640302605   -2.04094517910928    0.79455831642138
O           1.02776308188148    0.28848798490121    1.12153270911706
O           0.88980769035729   -1.27171073951552    2.97163601101315
H           1.08495766761181   -2.20085320818487    3.00675535076182
O          -0.90524841515634    2.13294525257679    0.95722016978699
H          -1.67744650072543    1.64534790060008    1.31014614886333
H          -0.13964660696485    1.57898706310296    1.20968259239390
O          -1.12232301343487   -1.04510630410246   -1.47532242961416
H          -0.26452904054455   -1.40274082455769   -1.80836745772865
H          -1.09641923439394   -1.25022735339190   -0.51739969759159
O          -2.67564255809209    0.26705910684201    1.71410234721991
H          -1.95910052361376   -0.39411043394690    1.60543961547551
H          -3.42809219503727   -0.07989406486248    1.23226518065225
O           1.42536265496121   -1.64432006305004   -1.84331690573881
H           1.56814119953871   -1.95473572152316   -0.92752198734328
H           1.86130461422280   -0.78362228666428   -1.88497743922703
O           2.07220242228208    1.02980330573149   -1.14974087742254
H           2.86243472824176    1.54425787507778   -0.97977407484683
H           1.75588432114682    0.71494191941327   -0.26543372807968
N          -0.59182576712752    1.49534425371257   -1.54859414223089
H          -1.03270228457265    2.04630607802930   -2.27557073558330
H           0.43865357284969    1.49537170916432   -1.63854106971368
H          -0.81496823453179    1.86340874256166   -0.56107386689442
H          -0.90380931739358    0.45755580240303   -1.57985735489683
