    26
        -50.46773286  Gyration_radius:  2.44735037555 Dipole_moment: 2.259
 S           1.28366142918598    1.26470518448736    0.69744083804545
O           1.12568446424481    1.14445844197772    2.13862094682421
O           1.94186974695957    0.10351246678746    0.11863308455960
O           0.04317565376250    1.58253111287183    0.02159246577144
O           2.25062370249707    2.49747414560358    0.47271287472779
H           2.86509706580299    2.38488928692448    1.19014946978759
O          -2.48466311333181    1.05274922640948    0.83003448171398
H          -2.78065471323946    0.71587896659068   -0.02360354721081
H          -1.66896116426950    1.54296679799194    0.62005741309743
O          -0.55832678223842   -2.05035718648926   -1.74926137421221
H          -1.18294918157033   -1.30385965406458   -1.73261866257809
H           0.22935561915663   -1.66713766574267   -2.17384719787294
O          -1.58774230849365    0.47710065110071   -1.82213052142810
H          -0.90816548388570    0.87701980321591   -1.24494676710898
H          -1.30867201848993    0.68036685967498   -2.71693387335370
O           0.45047025292781   -2.07624540815311    0.68569223800371
H           0.02186389700143   -2.21982436660947   -0.19822529818618
H           1.14584862278744   -1.41332113204846    0.51587325004550
O           1.46833308905351   -0.34126437950257   -2.46380317797637
H           2.32409011666223   -0.55360029979223   -2.83893039705175
H           1.63620307902253   -0.11167941007823   -1.52570734271999
N          -0.88716998150678   -0.52929063641947    2.26315397155515
H          -0.10909074132969    0.17310653752471    2.38732859952502
H          -1.66779334966425   -0.03230803940798    1.76260144878944
H          -0.44971746799459   -1.29263663897904    1.63192350069396
H          -1.19237044305068   -0.90523467387111    3.15419356656553
