    26
        -50.46829685  Gyration_radius:  2.46711749245 Dipole_moment: 4.550
 S           0.50372013892023   -0.48016020498063   -1.95423941434479
O           0.83321028073392    0.92935646328277   -1.80994555111875
O           1.39947707313215   -1.32267145871847   -1.17492659353535
O          -0.89322427958711   -0.76585187797049   -1.71010542121608
O           0.76810284400942   -0.84205200229061   -3.47079936437272
H           1.68940483665198   -0.62141045633076   -3.55411554320528
O           0.84714928041813    0.68582395167859    2.40442910944463
H          -0.10489900509294    0.90450240744728    2.24700427897512
H           1.34330941095778    1.22946877296878    1.75225343400072
O          -1.64453745947115    0.93856476823539    1.56052732066284
H          -1.89280285844074    0.03232885550246    1.33447864878888
H          -1.62342726738920    1.42254395253143    0.70892395453011
O          -1.51508827258566    1.88229546449088   -0.97873911415471
H          -2.10178653806359    1.27029151538663   -1.43006662284926
H          -0.62630725306806    1.64630786114798   -1.30570191764418
O          -1.81904211678418   -1.71250259913466    0.52875808083689
H          -2.56025181101512   -2.28472709709895    0.32605591747884
H          -1.49388544894242   -1.36527875722215   -0.34103031493762
O           1.89662284562647    2.05164159000887    0.36123619946060
H           1.52644184261487    2.93523550834810    0.30600208190001
H           1.60253983152077    1.59356503583259   -0.45160637670631
N           0.78272821755001   -1.65124000666016    1.34481788036715
H           1.12497497934921   -1.53617326823740    0.34949672152498
H           0.88170229345089   -0.68035262859414    1.85765217325819
H          -0.22236387384725   -1.87754715490260    1.27793695704359
H           1.29823231934999   -2.38195864472029    1.82170348581259
