    26
        -50.47362569  Gyration_radius:  2.40492249644 Dipole_moment: 3.719
 S           1.19639529973365   -0.84688671024137   -0.04767628345530
O           1.41658620104696    0.28781584346118    0.83822021694352
O          -0.25728258399284   -1.06378046688500   -0.21474594464724
O           1.82677916865222   -0.68371307036336   -1.34216206293399
O           1.77250919786463   -2.11764576278924    0.61508561077678
H           1.65314885188745   -1.95707916050300    1.59570968874361
O          -1.70833635404159   -0.02121454444376   -2.26222727529140
H          -1.24216857318358   -0.64314305919933   -1.67207520133934
H          -2.28305452428581    0.48491478750227   -1.67633112372827
O           1.21098457148659   -1.28428719744894    2.97978239537162
H           0.24294432303278   -1.41548781824260    2.95759556239963
H           1.36630540313389   -0.42011051887035    2.56521140777188
O           0.43461987479735    2.54440557421171   -0.15671306593515
H          -0.48159070918869    2.34030288950008    0.10496901872710
H           0.96039203289775    1.85527646761650    0.30319035951162
O          -1.33353297756407   -1.67369809898774    2.12598934325649
H          -1.66180065287580   -2.57394218821476    2.14103499021273
H          -0.97710929754305   -1.52487094566503    1.22310620979170
O          -1.77178586579975    1.06252911944512    0.43398358105903
H          -2.10368054832597    0.91931714255808    1.32250498965552
H          -1.18280647395624    0.30101908608345    0.25376695404143
N           0.58886374959569    1.30862454442350   -2.45336661372615
H           1.20204149104447    0.50276090356805   -2.12573653253168
H           0.54405869137499    1.98015263259607   -1.61954073377610
H           0.95499439616310    1.74520853275809   -3.29183272028260
H          -0.36747468199758    0.89353202813862   -2.59774276061784
