    26
        -50.46548675  Gyration_radius:  2.40327841859 Dipole_moment: 3.781
 S          -0.61685898186247    1.44909944957284   -1.14315953868730
O          -0.03779685445256    2.36074568131045   -0.17984919644907
O           0.34340900014428    0.99004545575881   -2.12922242426358
O          -1.34876638701305    0.35818222857126   -0.52134252765844
O          -1.71571112244233    2.27218984580542   -1.94106443902298
H          -1.20088083053123    2.95588854620309   -2.35736676763850
O           0.41914954322103    1.21028999054194    2.14313797873607
H          -0.44394157361057    1.18485441816355    2.56508162456415
H           0.27901240505304    1.71451167647732    1.31036127244764
O           1.91141227025225    0.20926662902096   -0.08222875932640
H           1.34920463541813    0.57739874296134   -0.78467918158928
H           2.20036538197601    0.96198350521020    0.43772032486259
O           1.69480194623502   -1.37143850276410   -2.49382500646460
H           1.21898656655856   -0.54187708201785   -2.66515900770732
H           2.36465607900638   -1.13782274381317   -1.84284372079462
O          -0.25607493703367   -2.06986739943661   -0.80510702143608
H           0.46878892358463   -1.98602529588394   -1.46720756366773
H          -0.77683860538668   -1.24870951980934   -0.89548625335207
O          -2.16520007323497   -0.31156216696115    1.90342336062110
H          -3.06730233086044   -0.62140057589005    1.81322324703869
H          -1.91433402911943    0.03115405404788    1.01495503294766
N           0.28015479514366   -1.42208676675744    1.64490355665728
H           0.20544648802740   -1.76004519765066    0.61699524662395
H          -0.69267559705447   -1.30950437326683    1.98529327364156
H           0.83048204549840   -2.04903872723260    2.21989435803271
H           0.67051123248262   -0.44623185216350    1.65355214188811
