    26
        -50.47087152  Gyration_radius:  2.47135835126 Dipole_moment: 2.011
 S          -0.14589443691605   -1.65716811362142   -0.84805982631239
O          -1.50920724037344   -1.13566234204903   -0.95914339440824
O           0.80365850493711   -0.56350879217737   -0.64810642960262
O          -0.01887734674587   -2.66517357157543    0.17754140216649
O           0.20399153970073   -2.31239004127918   -2.23008241082526
H           0.05941568168200   -1.58887972769563   -2.86083766529938
O           2.17400691832054    0.16235593470699    1.56137167859504
H           1.98658019728918    1.12447755023679    1.56558241359971
H           1.94780969890523   -0.13320030362027    0.66019186217521
O           1.40380059394537    2.73590800192960    1.20092212777620
H           2.04481028142261    3.32804356981839    0.80483023282074
H           0.74741665853881    2.53378861367243    0.50866056279044
O          -0.93283081185435   -0.03241991712375   -3.23788712240966
H          -1.31379854275876   -0.31846597336181   -2.37824405382394
H          -1.61626994632574   -0.17511515037612   -3.89608870971792
O          -1.83731505942044    0.42171442358967    1.16183724674796
H          -1.93446882888412   -0.19567161374179    0.40717320724447
H          -1.42537769111948    1.20372348592191    0.76367854123871
O          -0.29041295807793    1.80232245738375   -0.72112857692039
H          -0.56238925760839    1.95038991533722   -1.62948650102309
H           0.14372718526124    0.91458059574868   -0.73034744827035
N           0.00944866029245   -1.08880766990011    2.30276441044063
H          -0.77169720932768   -0.42760028355855    2.02063194712385
H           0.01024026808645   -1.85454297996779    1.57983763955143
H           0.94286804017106   -0.57158149902930    2.18563866756460
H          -0.11923490919183   -1.45711655922989    3.23875019873947
