    26
        -50.46658224  Gyration_radius:  2.49200025472 Dipole_moment: 2.503
 S           2.14890405991923    0.14946959697519   -0.12023911155922
O           2.05143430119460   -0.41779348379964    1.21006805246403
O           1.90061508746235   -0.84622940153317   -1.15632070832104
O           1.34315186756553    1.34104190764246   -0.30282279473760
O           3.65490286337604    0.60828100224568   -0.29234710435577
H           4.10746695859530   -0.17535952285950   -0.00080206250751
O          -0.26664612832446   -1.44982857862382    1.67270059727312
H           0.63120953442129   -1.07490340352297    1.46981143562876
H          -0.23532323059311   -1.69414061596111    2.59947595503321
O          -1.10701175704937    1.44446111660190   -1.40640164957557
H          -1.57219966120074    1.24629816480180   -0.55928421046435
H          -0.19115542615746    1.63283269381169   -1.12701852263850
O           0.06313286805142    2.43769479735710    1.77985682457916
H           0.12687579195041    3.38017875408494    1.61840493662282
H           0.63302299735745    2.01061721460656    1.10847977368132
O          -2.02109879981170   -2.18663380649926   -0.25474124261594
H          -2.68125926824202   -1.52689559052818   -0.02092433202495
H          -1.36024413695606   -2.14962743455603    0.46179467199949
O          -1.89245181623905    0.70300840880552    1.04240664153162
H          -1.36379917114598   -0.07493204158680    1.29276093914826
H          -1.40789549518661    1.44145923040888    1.45495434156423
N          -0.51964999896657   -0.97963630196719   -2.12145541541609
H          -0.56860149036210   -1.27168909916721   -3.09051757299281
H          -0.84637669405742    0.03731648279077   -1.98205711503243
H          -1.11048054632484   -1.58719726028650   -1.50286751185026
H           0.48347729074327   -0.99779283935150   -1.77291482551298
