    26
        -50.47612861  Gyration_radius:  2.47903968421 Dipole_moment: 2.433
 S           0.39224968099212    0.65159408948098    1.25686965732963
O           1.01315226098902   -0.64825370741827    1.02328521732136
O           0.93704447681892    1.66194576938269    0.35391730106858
O          -1.05709165176531    0.57021449244622    1.16679444500163
O           0.71956159664778    1.08199497366966    2.71763945442007
H           1.66735204792464    1.32046563744660    2.67517697907031
O           3.06263616506577    1.94243998942818    1.85744257641766
H           3.27745945410608    2.86590900141872    2.00814303143611
H           2.45387946942402    1.91867153646335    1.09129402792603
O          -1.38369845974039   -2.08069333057180    1.36587088062769
H          -1.43202247703722   -1.10831917098167    1.42498800214187
H          -0.45975433298741   -2.27564670389578    1.54869948642816
O           0.23643927443966    1.19254598178313   -2.17535987379327
H          -0.72948993020124    1.15049531348425   -2.08451124862263
H           0.55395094235117    1.53479918232638   -1.31410062676273
O          -1.73268822318645   -2.12549442423752   -1.28797583713481
H          -2.14155307263016   -1.25047964152271   -1.39799806197352
H          -1.73869616890514   -2.28571921501820   -0.31620108733578
O          -2.26794136966998    0.59538025782572   -1.16202736506102
H          -3.10499556895369    1.05276399627759   -1.06909618999715
H          -1.84094648023782    0.62763746388052   -0.27277705428946
N           0.73975497825669   -1.30035177158415   -1.50189917521571
H           1.45072642150779   -1.86818578472473   -1.94793444943717
H           0.64305125361645   -0.34364491367793   -1.95409571296873
H          -0.22685546749201   -1.76466164046198   -1.51993009074606
H           0.96847519066790   -1.11540737122340   -0.48621427584636
