    26
        -50.47246976  Gyration_radius:  2.42270885424 Dipole_moment: 3.987
 S           0.29458656937868    0.36784225081094   -1.57646712058573
O          -0.52891197498673    1.17400207722360   -0.67169100299604
O           1.40854936218320   -0.23846164190144   -0.82827770761238
O          -0.47943510938382   -0.63426442991882   -2.27179976425651
O           0.90810528952234    1.32717104267950   -2.62555984830034
H           1.28320796947100    2.05812339611130   -2.07958797726935
O           1.21702852692416    1.50650188239422    1.21456932436839
H           0.43296972572238    1.46506132070901    0.61654244365356
H           1.82275385848965    0.87075937252205    0.81083761363287
O          -0.23137143271758   -0.39595474131310    2.62252605816807
H          -1.11291937407262   -0.21479766972622    2.21614989177400
H           0.30938830950195    0.38807715193316    2.41449650153812
O           1.63786964420216    3.21056684912733   -0.92397777377872
H           0.86786675245419    3.78441050931792   -0.91870245363038
H           1.66200776355193    2.78510364268296   -0.04541510259873
O          -1.76585373748091   -2.28371388188218   -0.75698532571382
H          -2.22518088579415   -2.91947830047774   -1.30781880294000
H          -1.33534701651146   -1.64132886185215   -1.38500986918930
O          -2.27110627519370   -0.07224929165938    0.95421471994554
H          -2.42309007781908   -0.89260051722595    0.46856313953123
H          -1.78113890520104    0.49962346641331    0.33342115096549
N           0.47240829201309   -2.06231708142846    0.75668934326078
H           0.94336754513156   -1.38955648051852    0.07122874235315
H           0.21775867849952   -1.46974637310969    1.62790896373501
H          -0.40179754187110   -2.38103139024996    0.29691234297319
H           1.07828401393157   -2.84174231067442    0.98723250291201
