    26
        -50.47007420  Gyration_radius:  2.53628799961 Dipole_moment: 5.388
 S          -0.67758252865021   -0.99849193113092    0.04678532413734
O           0.51027749175935   -0.36942988598726    0.63910198332468
O          -1.88903199692942   -0.36722855278057    0.54764201759689
O          -0.58870200288168   -0.96005218453853   -1.41008623162838
O          -0.68217754707357   -2.48998883671622    0.46035323904329
H          -1.12770821160417   -2.50667501122037    1.36102799520202
O          -1.84290589650571   -2.01738737476405    2.69815226158099
H          -2.31763853098614   -1.33370862529006    2.20345267121415
H          -1.11461583701314   -1.54270875708464    3.15122092590532
O           2.16681168868706    1.66613792904718   -2.48127963045385
H           2.60768539718358    1.60648794758171   -3.32990179516579
H           2.30663437906819    0.78981218029067   -2.03354585081771
O           0.36914379329449   -0.58951765325380    3.26529814189336
H           0.47628243800331   -0.44907324106702    2.29897188833195
H           1.16546658835387   -1.03448735285257    3.56013680180345
O           2.16591982668920   -0.73422356069773   -1.39179239135361
H           1.46718202159340   -1.19999969538871   -1.86634954616423
H           1.75983067790708   -0.57464111598220   -0.51649358901781
O          -0.96305310021495    2.08534430248912    0.59825692314958
H          -0.16233777599194    1.94037749302327    1.11106120863888
H          -1.46235972185301    1.23949932423805    0.67736025343366
N          -0.44083454594193    1.59004226143107   -1.94211705851887
H          -0.62519489285651    1.97009303346064   -0.96689908808499
H          -1.09673605215155    1.97433058812049   -2.61369557102138
H           0.55761644692250    1.76927812037962   -2.22196335638846
H          -0.56197210880555    0.53621060870302   -1.84469754663759
