    26
        -50.46853924  Gyration_radius:  2.55750236789 Dipole_moment: 1.258
 S           1.26956349951365   -1.27118334222969    1.02019472231322
O           0.88951812498431    0.10608505495713    1.33321737717164
O           0.28131877664935   -2.21725068321006    1.48516018731941
O           1.61067888722876   -1.41873787566656   -0.38242940110127
O           2.60151331854245   -1.56022377217680    1.82546544519274
H           2.27114702254720   -1.66295911089315    2.71160957814137
O          -1.73528143499321    2.80197628898867   -0.26811314761677
H          -1.91769890139645    3.31568928061921   -1.05528265881418
H          -0.75547273265523    2.83809231710835   -0.13199214164579
O          -2.36002053890478   -1.91864618303932    1.58948979487403
H          -1.39511288667809   -2.08473639924419    1.66450653603485
H          -2.74009196194995   -2.73592122363232    1.26359552037754
O           1.83107385243498    0.73596761823813   -1.91591702993734
H           2.73811765125748    0.84738892083378   -2.20388366297231
H           1.83255153905162   -0.03812718264674   -1.30908283806590
O           0.89551038681980    2.50389038730091   -0.02873450169936
H           0.98878256866119    1.83950972720291    0.67094858028961
H           1.21629623296737    2.04800282262649   -0.82747037614080
O          -0.46602528729481   -1.04345041993319   -2.04437795788410
H           0.23836232085580   -1.45592246774642   -1.50820334034035
H          -0.00699500613547   -0.37655477139920   -2.56758929406518
N          -1.48432533602961    0.15835709941238    0.13182351042999
H          -0.58921330475566    0.21009004710542    0.67584325641822
H          -1.84270167039270    1.12727747650859    0.00107937153949
H          -1.25241537728023   -0.28041792328465   -0.79208776248027
H          -2.11907974303360   -0.46819566584614    0.66223023267700
