    26
        -50.46936557  Gyration_radius:  2.42999164489 Dipole_moment: 1.252
 S           0.98097095386167    0.35971197871253   -1.55279122381024
O          -0.24496818095388    1.12362878593999   -1.76315914041531
O           1.62929670517006    0.76651078791758   -0.31250895960603
O           0.78708287580932   -1.06489468423083   -1.65316986789202
O           1.96432736253045    0.76396715110573   -2.72076480567916
H           2.06414210579131    1.70107985248127   -2.59007099823616
O           0.86313584940031   -2.41454832243868    0.60312440726307
H           0.89541564875107   -1.91217374881656   -0.24418315956706
H           1.18996891827007   -3.29353576957576    0.40617257064946
O          -1.52440824675582   -1.24985816947548    1.23342952809001
H          -0.76101004540944   -1.84884331964737    1.15916009505793
H          -1.86388583816356   -1.14508242177964    0.31626926109273
O          -1.73482107642515    2.61005124172676   -0.10833873386300
H          -2.63546462073832    2.33985334523683   -0.29970888546233
H          -1.18457825083036    2.20139965579293   -0.80756788883371
O           2.01405667426651   -0.39526778723227    2.25115719230514
H           2.31436930471294    0.05862671357847    1.45599362329426
H           1.66475421644839   -1.23724013474707    1.93018840136744
O          -2.00004223665582   -0.83634950603341   -1.37410431647681
H          -1.43148021216585   -0.06881910598298   -1.58049411814846
H          -1.56244622755712   -1.57449171743243   -1.80600929088064
N          -0.28989391460425    1.04158299297505    1.51441040191955
H          -0.91170212681384    1.79756509583645    1.15813969861828
H           0.51012451477103    0.94979351493182    0.83817192207856
H           0.09170538162073    1.21749440027138    2.44004693962292
H          -0.82464955436386    0.10983917087841    1.50660735751611
