    26
        -50.47673579  Gyration_radius:  2.4186926899 Dipole_moment: 2.608
 S           1.11728181184178   -0.48848046869995   -1.04567370006584
O           0.09335397004382    0.50917368595524   -1.39297432911802
O           2.07669648293437    0.08423019037884   -0.11588720150975
O           0.51399511156572   -1.71202540556692   -0.55225990043721
O           1.85876822587689   -0.85985118095233   -2.36623264886008
H           2.26738905343129   -0.01288191123038   -2.63167664275435
O          -2.08816895432471   -1.06140418676950   -1.39288553882433
H          -1.63346017438412   -1.90772919312210   -1.36327806176846
H          -1.37191189618026   -0.41373548250642   -1.53027832956436
O           1.01128450972349    0.69380304878957    2.24570602253388
H           0.35849879586349    1.33512398725203    1.92398484430924
H           1.57878189772676    0.50690669325341    1.46803889244877
O           2.44851027914536    1.70921062380865   -2.22363132955115
H           2.65362850356598    1.42843644573856   -1.31808761730910
H           1.49797336919418    1.86997748029434   -2.22702303620216
O          -2.63638526375734   -0.30776831058296    1.11759521173775
H          -2.25592030964745    0.58565217269617    1.06809507588705
H          -2.65125979085307   -0.62133523479843    0.18420486755625
O          -0.94353733985847    1.82719655827192    0.63075196727849
H          -0.54988609283373    1.35371662368307   -0.14135392805834
H          -1.20665038669750    2.69129204068829    0.31003296273508
N          -0.43102569646901   -1.47136638554689    1.89857401656160
H          -1.41583867207732   -1.09183320746648    1.70548386802145
H          -0.02371413291932   -1.72722395359438    0.96281446141474
H           0.16369316617441   -0.66091738255645    2.24883171953997
H          -0.43209647707826   -2.25816723739712    2.53712835397742
