    26
        -50.46978701  Gyration_radius:  2.50709112798 Dipole_moment: 2.213
 S           0.80193689457997   -0.22255958938072   -1.98091000716394
O          -0.10525339041643   -1.30631415181872   -2.28753831826372
O           0.15231172693217    1.07742127551545   -2.00046637098930
O           1.55137626590207   -0.44929172355743   -0.74940078553587
O           1.88975503253449   -0.20741058729272   -3.13193325392330
H           1.36115109645951   -0.34912962587260   -3.91010125223175
O           1.59622059146529    2.07822475404170    0.13348434986756
H           1.76904280436456    1.14521054912755   -0.08456489223414
H           1.16971721251173    2.41663976194014   -0.66085694066173
O           0.21038733592765   -0.27591304584569    3.18227395972649
H          -0.15316984046158    0.54168141691098    2.73370231321563
H           1.04927859078278   -0.00665251032819    3.55985131950939
O          -0.51939593018198    1.79235981282984    1.78755392780188
H           0.29991455410730    2.01128847922921    1.29262797817710
H          -1.16249865361187    1.53529825512522    1.10756136783991
O          -1.90644603525334   -1.71288766821354   -0.38551710589666
H          -2.18472309383718   -0.78590412476006   -0.28504885638614
H          -1.36740700150852   -1.71009270971330   -1.20508510473625
O          -1.95168955766859    1.01593200039322   -0.46297476396828
H          -1.16762856998014    1.05746837654956   -1.06606414527409
H          -2.61644935712889    1.58885890716888   -0.84883324606919
N           0.26474229028570   -1.86666923532068    1.06914631375744
H           0.23914014695991   -1.29745223820994    1.96453581710398
H          -0.70409159489019   -1.89541092516404    0.61595601556161
H           0.87513169072828   -1.36992277903217    0.37107679916637
H           0.60864679143142   -2.80477268437433    1.24152488165899
