    26
        -50.46678232  Gyration_radius:  2.52248999881 Dipole_moment: 0.873
 S          -0.65668025475883   -1.50045497048694   -1.26683374104601
O          -0.55354285388829   -0.20887554172424   -1.94184694718404
O           0.49858050805496   -2.34006749157706   -1.49457716859581
O          -1.01409779088620   -1.35086349003508    0.12724544345266
O          -1.88179273892312   -2.24607033707411   -1.95160749799833
H          -1.49246128243019   -2.56129333678910   -2.76046820649012
O           1.51822085178252    0.99780784703168   -0.71090546139604
H           1.99129260276782    0.21888771175161   -0.38214409996205
H           0.79209651817476    0.63525025307853   -1.25006708273398
O           0.59734289251347    1.93460106841008    1.60922955954821
H           0.92564589578863    1.19437879707231    2.15871124339639
H           1.00926395689086    1.77639591526687    0.72749788184045
O          -2.10050925838000    1.88010069854921   -1.56474690894280
H          -1.56088983337161    2.61925618838002   -1.85313057470531
H          -1.60020456455972    1.07234761106962   -1.82676440480329
O           2.21610232639703   -1.51915708034128    0.26897668229466
H           2.98144784320184   -2.08723187646699    0.16118853770832
H           1.53280046358862   -1.87321700131747   -0.35189025179139
O           1.47913571459717   -0.38549926924688    2.67636525258166
H           2.31658273223898   -0.45551278884827    3.13708598195850
H           1.58404046117349   -0.87379965211611    1.83997084104507
N          -1.74305939160870    1.02489004830200    0.94829024836865
H          -2.47597632503794    1.04433499070833    1.64756793886653
H          -1.50007862602811    0.02808869511764    0.68650738362622
H          -2.03456382776142    1.49717357015726    0.06129659748851
H          -0.82869601953044    1.47852947115040    1.30504876348960
