    26
        -50.47392061  Gyration_radius:  2.43999887582 Dipole_moment: 2.178
 S          -0.20466862006311   -1.37805950479008   -1.33766089670754
O          -1.41569311994233   -0.82310755618752   -0.74821569048619
O           0.18742079859469   -0.70403351906932   -2.55365788046976
O           0.85519711937216   -1.48182746439473   -0.34639130142987
O          -0.54777164193370   -2.86437788781862   -1.75927995917597
H          -0.83394654630155   -2.72316054892402   -2.65428856819912
O           0.84491329013597    1.53751049247017    1.90055300230164
H           1.59723112301756    1.39330602729882    1.27899616813911
H           0.10324427301763    1.79974401291717    1.30913897161995
O           2.40671895738792    0.77903334005165   -0.11484621939458
H           2.04552852345076    1.30706848472309   -0.84441139440829
H           2.03455832718937   -0.10902950592531   -0.24063862031505
O          -0.98596772607045    1.74656680659337   -0.03952840826763
H          -1.22470635815141    0.84044250488223   -0.30777272384455
H          -0.43585883701849    2.07540193351224   -0.76494787076291
O          -2.48835197512587   -0.84353511132842    1.67393459582378
H          -2.84117691146865    0.04694716928080    1.74507647242679
H          -2.25142259593600   -0.95228607328048    0.72869093775583
O           0.82656317498235    1.80523887544530   -2.15330200450605
H           0.58029377434478    0.87327202946475   -2.36281901164518
H           1.04009327167651    2.22217807846908   -2.98929348827168
N           0.14462029097753   -0.93211687855350    2.14494487447882
H           0.46470024011742    0.11147098979344    2.18696411703609
H          -0.90351295971209   -0.95979763856111    2.16068336882096
H           0.45062591585466   -1.27768090678935    1.20081147195331
H           0.55136820160039   -1.48916813929095    2.88726005752391
