    26
        -50.47131920  Gyration_radius:  2.44859302934 Dipole_moment: 2.863
 S           1.52857594086606    0.06560933380434   -0.90517657991147
O           1.39538511085391    1.06012812187253    0.15342056014896
O           2.65408646613539   -0.81711122884216   -0.72485676161957
O           0.26947599863591   -0.61841705066583   -1.13670215959903
O           1.83796485705880    0.87816576854317   -2.24260229853617
H           2.73312001103121    0.61980692443854   -2.43594533109960
O           2.13040078613488   -1.93624296491182    1.62669852721786
H           2.38478111712615   -1.49977958629090    0.78663843796281
H           2.79354728527680   -2.61129690292291    1.78232698649991
O          -2.50254337008178    1.57562621969368    0.21470920406068
H          -1.89755135552043    2.09705529453640   -0.34984979529660
H          -2.71973953685456    0.79085032543492   -0.33245327957041
O          -0.41292768457724    2.41891387949134   -1.28395736963215
H          -0.28283740622960    2.09103513364750   -2.17555506572063
H           0.31401807625109    2.04167806404361   -0.75935568864294
O          -2.44600875573873   -0.69363322132692   -1.21856190683285
H          -2.56914561521214   -1.50633784709062   -0.72288870452399
H          -1.48826646401661   -0.62319173321202   -1.37278956705917
O          -0.48620845543325   -2.01587280165063    1.01926605307449
H          -0.26222847556630   -1.68661983564359    0.12698095468744
H           0.38412205252442   -2.22238113902485    1.40869536783702
N          -0.67640605581401    0.52389499159458    1.74177930220524
H          -1.49975119491415    0.99075914595859    1.21596605759904
H          -0.64254477897239    0.79444685316810    2.71796549481736
H          -0.73829243459866   -0.52662894909205    1.62373909325295
H           0.19897387164308    0.80954321444838    1.24250847868047
