    26
        -50.47235805  Gyration_radius:  2.44514200325 Dipole_moment: 3.390
 S          -0.01348030046779   -0.71077860666379   -1.11605562960441
O           0.09274427597824    0.72114976215281   -0.76216083188234
O           0.78845148350803   -1.49658322691253   -0.16969331494663
O          -1.39389042448454   -1.11746484517395   -1.15000886571228
O           0.59269435045607   -0.88409683161294   -2.52386048994628
H           1.57243785714037   -1.03564745437023   -2.36388292429726
O           2.98982924747423   -1.17643384976528   -1.67357448261420
H           2.54949897740670   -1.53576448368309   -0.88838587571206
H           3.15093389182047   -0.23147827130460   -1.47396149769059
O           0.05168702402600    1.62721202047834    1.80281871433281
H           0.28642508101590    1.43408806296945    0.87546728549728
H          -0.79510194324038    2.08229537184623    1.74694851191289
O          -2.31143448096814    1.56281448869376    0.10080969650560
H          -2.91938375913619    1.71620979959818   -0.62401763188584
H          -1.48389422113959    1.24073853237502   -0.31388439863112
O          -2.78877784658979   -0.93484591897778    1.08434572141660
H          -2.45815583143306   -1.23190642728697    0.21029013421901
H          -2.88952941461772    0.02663282658566    0.95439672809031
O           2.61791871687196    1.43198265847512   -1.15993832414091
H           2.64570068848697    2.07874889560035   -1.86679730208850
H           1.67077724166171    1.23357774029976   -1.00330555132890
N          -0.38383763107774   -0.97596117561544    2.09865602841196
H          -0.14473632129802   -1.52188955016507    2.91887259205079
H          -0.15937799552025    0.04686825283743    2.21628098618242
H           0.15497844800323   -1.29885428124239    1.24122166759310
H          -1.42247714385455   -1.05061345914705    1.83941902426795
