    26
        -50.47688179  Gyration_radius:  2.44055081263 Dipole_moment: 2.702
 S           0.27473042312995    0.44575695064293   -1.47864827042825
O           0.20287458720718    1.82499748370312   -1.02847436702680
O           1.35763360178591   -0.26618600822164   -0.78561076267448
O          -0.98911671780856   -0.25565351444519   -1.33276975266154
O           0.61461934295532    0.43027150526982   -3.00068836685321
H           1.45136123114800    0.93290153807604   -3.04105389182031
O          -0.19741309536189   -2.68322932672849   -0.54964888955588
H          -0.59144385555295   -1.89103477813089   -0.96249365995648
H           0.74953534640105   -2.55832687411525   -0.65149413834038
O          -1.02911215377913   -1.98525580812583    1.89963084305160
H          -0.79118358684953   -2.45348346729016    1.06785212155292
H          -1.77007535991699   -1.40331253594998    1.65972555216088
O          -2.56591088175194    0.02175365215674    0.75216532306306
H          -2.02215644049364   -0.06650546804101   -0.06515622864532
H          -3.47960275534555    0.02524875022268    0.46271791394844
O          -0.71281828306913    1.95411761287184    1.46639544463729
H          -1.55883618287187    1.48472354476212    1.38305319834455
H          -0.41271625755036    2.10422753867554    0.54499752423838
O           2.68864929178934    1.77789155756687   -2.07478465803721
H           2.82954471685571    1.00571341354810   -1.51368187180509
H           1.97879673615395    2.27509821403265   -1.64162789582738
N           0.82232192490600   -0.14611370342904    1.80236764130799
H           1.15651681692742   -0.23546266464533    0.80778989594978
H           0.12823578035511   -0.94770763031626    1.97833481461640
H           1.59425726991058   -0.15689588705357    2.45913928849806
H           0.27130850082409    0.76646592495536    1.84196320226067
