    26
        -50.46927616  Gyration_radius:  2.5205801333 Dipole_moment: 1.684
 S           0.77438794891348    1.42997542443223   -0.38786984779003
O          -0.49188446998170    1.05597060232065   -1.01373590219061
O           0.65403547953991    1.42556756048912    1.06702386011542
O           1.86041971549526    0.58999600232551   -0.85694531674272
O           1.10251553520855    2.89044989018355   -0.83350423888466
H           0.39423271094764    3.39822171759651   -0.39728015177223
O          -2.36638688161375   -0.15656565893895    0.40137240213787
H          -2.98182654803879    0.47164665403866    0.78176108661365
H          -1.70346394757462    0.38019840753860   -0.08887187412976
O          -1.25032350853573   -1.26737204622247   -2.08502685768652
H          -1.92675931096065   -1.45245517817987   -1.42412826719895
H          -1.01814987554825   -0.32855953869936   -1.93161540440784
O          -0.73530871722229    3.62114769045470    0.95225209020623
H          -0.46991076114988    4.25378990098836    1.62346759527895
H          -0.34033586210018    2.76075652062455    1.21037949046313
O           1.17488435350256   -2.88326097542196    1.11802624396178
H           1.98329462994429   -2.83257489520693    1.63045126023600
H           0.56784650797086   -2.19484211057807    1.51161529903787
O          -0.27687344293908   -0.90772403540520    2.00041584054030
H           0.16934403152877   -0.06723454814221    1.77930613124822
H          -1.14121800293609   -0.84252836729148    1.55688340425705
N           1.21565212006227   -1.89164926977238   -1.33604014089157
H           0.21994052164249   -1.81672935192645   -1.68402165024875
H           1.54576695847677   -0.89185262386285   -1.18008269257657
H           1.23476042187110   -2.38423445781390   -0.39885679353804
H           1.80536040351886   -2.36013731352312   -2.01497556603027
