    26
        -50.46821190  Gyration_radius:  2.44258620276 Dipole_moment: 3.018
 S          -1.11682982360413    0.21949079289231   -1.52725969290854
O          -0.45996971206545   -0.71901875165734   -2.41568405602179
O          -1.52231112387983   -0.39593767247478   -0.27831314476552
O          -0.35488914675846    1.43949043644940   -1.30779269076390
O          -2.43802535152799    0.67613233896422   -2.27218796284946
H          -2.75288308920383   -0.16136907039147   -2.59258997393120
O          -0.90150144704960    2.70458016344860    0.91680835249200
H          -0.82137296791064    2.21556668217739    0.06280142826064
H          -0.72891399205203    3.62359306407520    0.70519845950028
O           1.81189131602226   -1.67581964401818   -1.57509004527252
H           2.35195717247041   -1.93582216048084   -2.32274113781340
H           0.95616765267813   -1.35007154274768   -1.95372334429288
O           1.96046332923587    0.66800853360835   -0.22727839059106
H           2.09296950586946   -0.21837558209042   -0.61253694310751
H           1.20873533596360    1.04630954758647   -0.72703938565331
O          -0.05051964154076   -2.62014500539853    0.30505821696742
H           0.76537954092988   -2.56268927794775   -0.20705714307027
H          -0.64281009492580   -1.95692624166483   -0.09018721122935
O          -0.92413318036182   -1.07301864386734    2.31811489215262
H          -1.51494931005841   -0.73434336213930    1.62713178292365
H          -0.51167133292459   -1.84525444591069    1.88236808452641
N           0.73798890134270    0.93468429638679    2.08566491352682
H           1.29584366782001    1.17781538685252    2.89601550459723
H           0.11515940464899    0.08146914842950    2.27228800814149
H           0.10026606368368    1.71753315773599    1.80606327647039
H           1.34395832319699    0.74411782217821    1.23196823270828
