    26
        -50.47304519  Gyration_radius:  2.41241760054 Dipole_moment: 4.413
 S          -1.28777322562992   -0.57687844112032    0.00503379297450
O          -0.57735888414512    0.61580940907253   -0.48234813255398
O          -0.34824341435044   -1.67538767950220    0.20437182348462
O          -2.02763459684143   -0.26804740627469    1.21918136120902
O          -2.31524315865730   -0.98043299713755   -1.07023940394691
H          -1.80814418984198   -1.00149818619845   -1.93433640990784
O           1.25501517080869   -1.82217890624940   -1.90598615290898
H           0.71794011484327   -1.94584354062912   -1.09591064738262
H           1.82352592655678   -1.06521239822332   -1.70876790934416
O           1.61568532060042   -0.66647821792956    1.66560054160150
H           2.05957950700849   -0.20245915469805    0.93390781625002
H           0.95133578852470   -1.23210267050877    1.21434816413155
O           2.03060791551379    0.61111267406992   -0.72158751278335
H           1.04328541720376    0.62722213928774   -0.70185462897191
H           2.30550369978053    1.49595646864231   -0.96530657074048
O          -0.90566651037103   -1.15809648285280   -3.22262117807217
H          -1.18329433106996   -1.93283953530302   -3.71610215326270
H          -0.01458990240874   -1.38208659794971   -2.83688423543626
O          -0.41937419790370    2.84775378204936    0.88667885954610
H          -1.23547008454075    3.33835172271499    0.77800120656205
H          -0.48954578658750    2.07461259599653    0.27571688668411
N          -0.23193391168848    0.87504613083781    2.67667690216219
H          -0.19459092901108    1.80915761219220    2.21053403859851
H          -0.33554550085937    0.94316315378282    3.68285981957136
H          -1.05671207539837    0.37046994482784    2.21562109483656
H           0.62864184848194    0.30088658111217    2.39341260768878
