    26
        -50.47472245  Gyration_radius:  2.50570500098 Dipole_moment: 3.299
 S          -0.83547478574137   -0.41627822452208    0.63857283936402
O          -0.51372366092518    0.91253537897242    1.17096242515284
O          -1.06534710430633   -0.34774278344642   -0.80398948955438
O           0.21514440584654   -1.37477374166457    0.94527643075285
O          -2.12949477633196   -0.90878746550477    1.31731539071841
H          -2.68341124799403   -0.07517589939223    1.40113093227989
O           1.24367717734035    0.14200467379059   -2.02111169688589
H           0.30680639191484    0.02603393827656   -1.75380911673862
H           1.62899537373087   -0.74587912607326   -1.89411782849413
O           2.82205856329497   -0.92018138858639    1.42027750303244
H           1.88326199271626   -1.16253957401369    1.54155092342724
H           3.13858795359373   -1.52317835682497    0.73892942461593
O          -3.03848304357651    1.32680494660806   -1.33586870205537
H          -3.67200857077949    0.85541438401565   -1.87929915268830
H          -2.27037388872670    0.72411721251033   -1.22647916228519
O          -3.15638911218218    1.43383043875671    1.33609094220475
H          -2.24444474441533    1.72395152845307    1.48335008264337
H          -3.31088978234490    1.55988393245569    0.37529075246385
O           1.78665991329566   -2.30383743951672   -0.97611344536289
H           1.13818014151507   -2.03968707508708   -0.28473270143694
H           1.42308718835656   -3.08562172467581   -1.39376401176445
N           1.89203571964231    1.27227280581776    0.24198341178020
H           1.74225386383635    0.94113812540162   -0.76660435754235
H           2.32310330623035    2.18844630125953    0.29437187709631
H           0.92602732716235    1.26407010816750    0.68450092295651
H           2.45016140879686    0.53317904480760    0.74628579629038
