    26
        -50.46908055  Gyration_radius:  2.43777403918 Dipole_moment: 1.129
 S          -0.21934781690604    0.53182991971404   -1.75611710771749
O           1.20752996419365    0.28564204950792   -1.88400727115752
O          -0.99861301579323   -0.68497157861933   -1.84303061306826
O          -0.53429216431043    1.32387706358853   -0.57910877421521
O          -0.64287330180489    1.42258290514520   -2.99444517230381
H          -0.56409587726558    0.80567582571717   -3.71420333415249
O           1.83472513158050   -1.54152053044931   -0.00817047123375
H           1.03736256734669   -2.09345377823742    0.03378156249312
H           1.74855963149187   -1.00534282490626   -0.81878055819799
O          -0.79662529684810   -2.37889936757030    0.13005236694481
H          -1.31282871894633   -3.15287609899548   -0.10003448756770
H          -0.94345973482712   -1.72965328490499   -0.60189613884222
O           2.54253169905087    1.86272000338388   -0.12018872853226
H           2.08706777210052    1.33852618277956   -0.80330417878834
H           3.26368538183629    2.30425577336967   -0.56992282688989
O          -1.22995248243193   -0.85281983969780    2.39292105496491
H          -1.12452315660016   -1.56806895795065    1.74087139840112
H          -1.91626715376164   -0.27694257522253    2.00078616557781
O          -2.71994179510677    0.79174987424009    0.85091214029294
H          -3.11566927233159    1.64341055737667    1.04104023093963
H          -1.98468810580585    0.96595330179731    0.22846523683485
N           0.88810866274676    0.41493177815932    1.50648737324899
H           0.11066055656997   -0.03718890443028    2.07553326924951
H           1.44356345027424   -0.35212307740947    1.03111403900010
H           0.43357519484220    0.95240784385661    0.73621488546357
H           1.50580787067860    1.03029773975811    2.02502994924793
