    26
        -50.46605507  Gyration_radius:  2.53122144515 Dipole_moment: 2.189
 S           0.12398630163617   -1.39203394976651   -1.51030046388709
O          -1.30619617578532   -1.58454491080989   -1.42088181690438
O           0.49767687239766    0.00465589110022   -1.28124844648864
O           0.87513040926063   -2.29752641041641   -0.66468738630588
O           0.55333110132908   -1.69471949608731   -3.00384685286294
H           0.36681568175046   -2.62483346912383   -3.07506868977618
O           1.22900835028797   -1.54433776834603    1.80501733302011
H           1.44838355788126   -2.30713893445745    2.34135744501658
H           1.15011917360464   -1.87771611403785    0.87567033264902
O           2.25403174363923    0.88896776979576    0.69043020757873
H           1.84377658243582    0.61177203268049   -0.14320006211467
H           2.21025236527102    0.11120318982242    1.26064245185468
O           0.26049747084267    2.62143293935300    1.37562738573908
H           0.02251525570768    2.89900010079988    0.47121463509894
H           1.14937052247509    2.22339814948506    1.28081996557264
O          -3.07664830319211   -0.87536854512810    0.43337033554264
H          -3.80606411594551   -0.45208399955523   -0.02204419095642
H          -2.51239855029602   -1.26631228352644   -0.26829628459274
O          -0.17842401939769    2.64944571624518   -1.32763492691561
H           0.42566225344327    3.11726739595737   -1.90621597213064
H           0.01646748403958    1.70332067928349   -1.44356619441627
N          -0.73354530094431    0.21878690693317    1.13131764416986
H          -1.73936719826991   -0.04322768023822    1.12001753348252
H          -0.37413500569513    0.11974221024451    0.16017401760539
H          -0.51878787921563    1.22632746365704    1.41321120495983
H          -0.18145857726175   -0.43547687386514    1.70812079506016
