    26
        -50.46865897  Gyration_radius:  2.44083008017 Dipole_moment: 7.030
 S           0.45865332415535   -1.12522310035622   -0.64378944465156
O          -0.47903259492979   -0.00847744871398   -0.83586569670759
O           1.19981578529039   -0.91076344963938    0.61856356362058
O          -0.22690972952920   -2.39476863151503   -0.63445529089124
O           1.45845668608388   -1.11093040130850   -1.79922678281080
H           1.83812502210134   -0.15719774278743   -1.86692688742898
O           2.20686479712960    1.30114530782155   -1.93296851561270
H           1.41550705080830    1.68189729681636   -2.36480189872616
H           2.17920592911753    1.61153494876278   -1.00163478497120
O           1.71637693327507    1.70900953017507    0.67748298141917
H           0.82690810734454    2.03729034179462    0.84956961573226
H           1.65695408188796    0.73610066892306    0.74000906047530
O          -0.30506085221660    1.71963907561531   -2.84593574006817
H          -0.47853722742125    1.25312594181205   -3.66496330659004
H          -0.48359771517240    1.08035511403357   -2.12501664491337
O          -2.07861034113797   -2.55514198455422    1.17046238323162
H          -1.45891434628354   -2.50451260489873    0.39424407244332
H          -2.14340039975739   -3.48821285900603    1.38228532502235
O          -1.19580903674235    1.56913992253295    1.07685329120325
H          -1.98036807500147    2.05120873014307    0.81182449286680
H          -0.94497411924131    1.00682711001479    0.29515282578682
N          -0.64621773316961   -0.69966246824182    2.38243511146243
H          -1.32810570087173   -1.44683748514321    2.08226105157853
H           0.21447575454826   -0.83552826876388    1.74083703640388
H          -1.01887085021705    0.24073721768587    2.12859020450508
H          -0.40293474004570   -0.76075476120541    3.36501398761630
