    26
        -50.47201740  Gyration_radius:  2.51772592178 Dipole_moment: 1.418
 S           0.14648984618921   -0.90493751522458   -1.77790967858892
O           0.48997498027892    0.20901567004699   -2.63522723107659
O           0.98955230597452   -0.94390358655122   -0.58266308117915
O          -1.25889882934221   -0.98868293920467   -1.44110293932159
O           0.47908347130827   -2.21738792856562   -2.59653039777115
H           1.33070799826202   -2.00875950810172   -2.96524661357733
O           2.14321574202956    1.26510489274224    0.53197964199581
H           1.93600284637742    0.41527303612309    0.10678345224676
H           1.59897266452784    1.90813822936672    0.05318585933838
O           1.33540585839747    0.80689730300101    3.02672559442863
H           2.07286487025638    0.43231985816178    3.50951893680981
H           1.70024826351952    1.10052457862317    2.15540063706039
O           0.29667213576114    2.38788586739985   -1.22165472233668
H           0.39887390820758    1.59117625216155   -1.80001487993137
H           0.31513906243969    3.14644064483577   -1.80761059601415
O          -1.95810250757749   -2.53201254125927    0.65094757900971
H          -2.75219326242809   -3.02716278003308    0.44750967836407
H          -1.72099756920436   -2.05256445619964   -0.16825566178497
O          -1.87079444265412    1.22809830081058   -0.01661285664618
H          -1.89647159557803    0.49859434899141   -0.66107088801762
H          -1.19915603525670    1.84441789673467   -0.35737510732722
N          -0.51982894690424   -0.43655044802469    1.54603565277491
H          -1.13267261579990    0.31712825662468    1.13145505636580
H          -1.09963341012789   -1.25040564030346    1.77190476528646
H           0.12319197701955   -0.72593436134131    0.76811019365389
H           0.05235328433094   -0.06271342080482    2.33171759624367
