    26
        -50.46642380  Gyration_radius:  2.51822325682 Dipole_moment: 5.576
 S           0.38384942451422   -1.59301453885679   -1.08297012094425
O           0.37197693215981   -1.38703398595415    0.36084905699205
O          -0.48355827354540   -0.58603643305593   -1.72507594921470
O           1.69061247977678   -1.65495019711311   -1.65818044951112
O          -0.33649549915473   -2.97957927303678   -1.32360627194468
H          -1.14309674850237   -2.91132932091061   -0.80824321282624
O           2.65223940499193    0.64796873949276   -0.55596915825397
H           2.47476708451470   -0.23598240399958   -0.92172209153572
H           2.03901198340438    1.24521475836464   -1.00552025483351
O           2.40636344833409    1.19778866089710    2.06060229681159
H           2.65621322194402    1.04247561396107    1.12063057717516
H           2.67000158242210    0.40252390955397    2.52654645083530
O           0.29840428815388    1.88756077778855   -1.52734901710650
H           0.00020908612905    0.96211686947670   -1.70755076032023
H           0.11576734188327    2.39252145432646   -2.32066068746827
O          -2.56202348665862   -1.29920309134315   -0.37902497146188
H          -1.80194226756436   -0.95187076924451   -0.90902417018524
H          -3.33645369284191   -1.21992882453799   -0.94038857085365
O          -2.57039152090062    0.33783077264501    1.81261576215869
H          -2.65577287296397   -0.22663263750247    2.58240851289670
H          -2.61061730617160   -0.26040325572274    1.03721862847503
N          -0.06651752536020    1.07151488740798    1.08991217306932
H           0.11105799162389    0.06540419141276    0.78389937227338
H          -0.05481874453229    1.65834912560590    0.24644930134632
H          -0.99566400178830    1.07831074093108    1.54698639849011
H           0.74687768014158    1.31638424946838    1.69716714591860
