    26
        -50.46343308  Gyration_radius:  2.61436889414 Dipole_moment: 1.757
 S          -1.50421459683182    0.53368450402932    1.76270544016267
O          -2.30137106568114   -0.67009832688736    1.58851586278332
O          -0.12638201939015    0.21338324655228    2.11682179143392
O          -1.57840506301213    1.44337341665640    0.63944459427784
O          -2.13363008987269    1.28667710107490    3.00548295933140
H          -2.36990664949140    0.55860038626115    3.57097325470104
O           1.32677404292601    0.79829864635048   -3.47156120519950
H           1.86479597649086    0.46079884475705   -2.74154189575865
H           1.92732933777805    1.24504938441556   -4.06875345375918
O           2.07585360213594   -0.09670937550806   -0.84331244983020
H           1.88461066150461   -0.89415092987476   -0.29831315811447
H           2.17653341744085    0.62779044057728   -0.18708545755150
O           1.85714332994008    1.67074065083796    1.14000371156723
H           1.06771070757394    1.22123123515604    1.51439966995435
H           2.48504945381253    1.73876288115992    1.86084507768235
O           0.90996565393964   -1.87875944430979    0.74898891179620
H           0.12749459588704   -2.22200449643468    0.29928263965278
H           0.57476408879070   -1.20656748837078    1.37216325372405
O          -1.63918007684858   -2.01118178305630   -0.51937676388141
H          -2.33161210206210   -2.64298588380723   -0.71800145247029
H          -1.93307691934448   -1.53055359707801    0.30098220096559
N          -0.48811881933467    0.27760616804846   -1.43191484037362
H          -0.92507112924195    0.88385351775746   -0.68625352281147
H          -0.95694952963187   -0.64314209335169   -1.38660122367834
H          -0.53542992396813    0.69028190630774   -2.36242191933969
H           0.54532310649245    0.14602106872887   -1.20547201527155
