    26
        -50.46806844  Gyration_radius:  2.61791630461 Dipole_moment: 1.382
 S          -1.01160668689972   -0.92393700069032    1.34487315158350
O          -1.54397993501478    0.29812785918022    0.74189118877325
O          -0.98919461253357   -2.02842051803892    0.41218665203542
O           0.26634370660462   -0.67684481398332    1.98539077120141
O          -2.02258869688830   -1.34247025000342    2.49069417029947
H          -2.64833995236878   -1.86877326721467    2.00373741156737
O           2.39208360855307   -1.93920636838916    1.01317416494580
H           1.59286746500655   -1.54495312971146    1.42724441314046
H           2.47353377698393   -2.82068560468741    1.37918842113088
O           2.32709835278851    1.01654139067548    1.32843913193518
H           1.59741816356201    0.60629560518217    1.82302470984611
H           2.96522774782302    0.30633152769848    1.20465235400643
O           1.00229378558990   -1.64504323399907   -1.31894323690843
H           1.71888510934318   -1.85593239219234   -0.69334435845985
H           0.19112375152751   -1.92748354292095   -0.84927120993692
O          -2.79573475109375    1.67501595877443   -1.20436689774053
H          -3.26003307348128    2.36872994049060   -0.73248033183093
H          -2.42494803318246    1.08990152701725   -0.51661740963106
O          -0.61630694179715    2.44841745453158   -2.59013063546441
H          -1.47069444298494    2.24024606271131   -2.14991271804603
H          -0.69441800540359    2.12539904845033   -3.48900978396784
N           0.60506592050180    0.90110628118395   -0.73709843554617
H           0.83193012076584   -0.05246772950783   -1.14113981815907
H           0.37339517244700    1.58885799785019   -1.48261329757849
H          -0.24159857534224    0.76686576520335   -0.14084113630064
H           1.38217704549599    1.19438141239122   -0.10872727089009
