    26
        -50.47106796  Gyration_radius:  2.43251788298 Dipole_moment: 7.173
 S           0.20771912524333    0.89015352499031    1.34565236018165
O          -1.20635481329680    0.95864237013432    1.67132277504799
O           0.64290458408344   -0.51065968805043    1.21443743191890
O           0.55739602997686    1.64735278559959    0.16397979845271
O           1.01946180653494    1.49651234993672    2.53420067024538
H           0.69680981585320    0.96212959623726    3.28623278024736
O          -2.51968534066907    0.33232697088695   -0.57157616768854
H          -2.10704262108905    0.90230936124918   -1.23135997566302
H          -2.19444955302416    0.64705617130503    0.29529963476460
O          -0.96950174242687   -1.79899860742200   -0.48291434957538
H          -0.41212894282188   -1.45900830579727    0.24866800275761
H          -1.72692670854697   -1.16425912172232   -0.52546500099062
O          -0.35817655966590   -0.35039302865678    3.82360729374650
H           0.01907125640313   -1.05868646304959    3.29166210886979
H          -1.03251792919098    0.05719312628243    3.25349163887005
O          -0.47540854661276    1.59759530074438   -2.18391377442929
H          -0.24342222212997    2.42079348900600   -2.61667288335782
H          -0.09697281978395    1.66528601633060   -1.26400905856852
O           2.54142690763620   -0.77085606287786   -0.58028215069265
H           3.04621612093400   -1.51879054884368   -0.25557903290821
H           1.89099263199962   -0.55725043641679    0.13153170268391
N           0.55451618441470   -0.88515616222034   -2.35068737511132
H          -0.13453472931301   -1.37819747564733   -1.66088984410126
H           1.46199684667419   -0.83347367867250   -1.82471197357695
H           0.64642254321864   -1.37720576486382   -3.23165424383931
H           0.19218869581885    0.08558430164740   -2.48037035727940
