    26
        -50.47636612  Gyration_radius:  2.4229797793 Dipole_moment: 2.567
 S           1.33329835027384   -0.87278145501510   -0.08200429872462
O           0.75519928122121   -0.59952159500419    1.23718191516079
O           0.51649227182332   -1.82430901278573   -0.81446910347610
O           1.55329204916864    0.35754086009027   -0.83028684075825
O           2.74409773244682   -1.49756659033000    0.14922034721169
H           2.54065275109519   -2.31970346057873    0.63434198250383
O          -1.77836490908285    0.04123316877654    1.13515283909784
H          -0.81963190194807   -0.19963687962462    1.18745589850807
H          -2.17504870777023   -0.25685302618359    1.95519340775144
O          -1.87431509815927   -0.87443976362715   -1.47953514386115
H          -1.04337581694586   -1.38033044979951   -1.35210844557761
H          -2.15953520461296   -0.64867864257812   -0.57946993294914
O          -1.26382311732605    2.60398339150998    0.23411945918180
H          -1.66466374622594    1.82501938054026    0.65578963906125
H          -0.36215773057895    2.66278221165693    0.62591432867547
O           1.21946671396816   -3.28900191688422    1.35924836775825
H           0.89922261996102   -2.49760215317527    1.81208774421356
H           0.75024291407463   -3.29703743773159    0.51348281717502
O           1.22187203975809    2.16719017705930    1.12949449324941
H           1.52253558201027    1.64652192790722    0.36286798445498
H           1.13312679190498    1.51127612034886    1.82803514766509
N          -0.61301728323273    1.36860023300403   -1.97338816058747
H          -0.59165234893050    1.83091547303280   -2.87479155666619
H           0.33472554581925    1.02057102723610   -1.68992536300515
H          -0.93902873414796    2.01508183473519   -1.18078722208748
H          -1.23961005457095    0.50674659743672   -1.96282031397419
