    26
        -50.46992769  Gyration_radius:  2.54094873869 Dipole_moment: 3.596
 S          -0.10506457305209   -0.10570637172127   -1.54469949045820
O           0.26953108939555   -1.42804367609480   -2.02062805777185
O          -1.07626565169727   -0.21498113845581   -0.44584290900601
O           1.02968945993443    0.70659730380947   -1.15853474100861
O          -0.82639726081876    0.64941216507977   -2.70653529724146
H          -1.55488126816763    0.03946563797222   -2.93499921694349
O          -2.34102029126233   -1.51379542868162   -2.56759695171364
H          -2.56869418435399   -1.32074715974382   -1.65195851607145
H          -1.43864903633021   -1.87221453656939   -2.52899648623692
O           1.72101465347104   -2.51040313171452   -0.09140515014292
H           1.25404501511449   -2.10245589092963   -0.85329072387412
H           1.92778607380607   -3.40656825095493   -0.36222862007866
O           0.07941894132133   -1.34484715521777    1.69104549318541
H           0.65671548926035   -1.98538554087298    1.23330354532597
H          -0.50404751305710   -1.00377477742178    0.98359157920971
O          -1.72763377097218    1.90134924907726    0.99259860287816
H          -1.47217286027565    1.16980969277974    0.38722890183097
H          -2.35564526259463    1.52126347230598    1.60992957739668
O           0.46098838745230    2.97484594921217    2.03725937910306
H           0.68173936443403    3.71340561743218    1.46688123946812
H          -0.40889762261691    2.63937247254445    1.70922243631831
N           1.68796207425024    0.70465236539113    1.37298013587295
H           1.08738024284249   -0.11080903815255    1.70759157388795
H           1.32348006432926    1.61199041299675    1.76145133063300
H           2.66713621636750    0.55642180770269    1.58900139680471
H           1.53248223320501    0.73114595022329    0.32463095863330
