    26
        -50.46575022  Gyration_radius:  2.49926356724 Dipole_moment: 3.029
 S          -1.20525674876783    1.51343028369902   -0.97019368079314
O          -1.91879307340979    0.76716025958683    0.06191639051366
O          -0.22232891116429    2.41331635425195   -0.37388462981621
O          -0.66195768389841    0.66730455480547   -2.00050584087388
O          -2.27617035311458    2.45212656623085   -1.66027800064461
H          -2.44503563087734    3.06924145510227   -0.95717657019162
O           0.19609145877475   -2.24190639410518    0.41247845611134
H          -0.72226279294708   -2.34144530593760    0.09654930458213
H           0.65812219241501   -1.86017563961040   -0.35240511868275
O          -2.32579465765193   -1.82146494052246   -0.49228949198384
H          -2.19802066120008   -0.85324034945150   -0.42675072597537
H          -3.13441745992817   -2.01461623888995   -0.01517392259280
O           1.35355803076074   -0.93117995500363   -1.74827541244872
H           0.60246818010559   -0.29144017791969   -1.84766120004318
H           1.44806384044455   -1.34869825056776   -2.60579331676045
O           2.97820898694904   -0.50084991783649    0.35038735474423
H           2.76886058218657   -1.31533985600163    0.81653710692290
H           2.55680010285519   -0.59295281809636   -0.52605736374161
O          -0.54711597611330   -0.30747223940091    2.09822714393717
H          -0.24928665772879   -1.12265753725600    1.62767145416374
H          -1.19888516288179    0.09318492329813    1.48809882170339
N           1.33503171310931    1.33208147110901    1.41805307932640
H           0.60678442927810    0.67341122234360    1.86818922444670
H           0.79649147263299    1.83571510911448    0.65512367254874
H           1.71725349893940    1.99414907643561    2.08333911616013
H           2.08759129123318    0.73231835462072    0.99987413938469
