    26
        -50.47603925  Gyration_radius:  2.46428809248 Dipole_moment: 2.625
 S          -0.50329671247276   -0.33815860796547   -1.37110063268242
O           0.75959049097438   -0.86047652928162   -0.85527401197036
O          -1.63133443836258   -0.88646939761522   -0.62245321136299
O          -0.50776032090251    1.11458961133919   -1.38499250698670
O          -0.63850454911822   -0.79736336906779   -2.85350551977004
H          -0.82927341588051   -1.75394256609091   -2.77764708890841
O           2.29314871661158    1.31357022040618   -1.04335028515601
H           1.66742417563926    1.85624891391199   -1.53108125070486
H           1.88417120907963    0.42639151153135   -1.04144388811810
O          -1.51379105028630   -3.12662684063291   -1.97161950800853
H          -1.66487048051769   -2.46265952819910   -1.26817456725512
H          -2.38046266284808   -3.41493025317604   -2.26700034488235
O          -1.50422508336147   -0.24546133937492    1.96193412766422
H          -0.64007803393574   -0.64147349847349    2.16383907791331
H          -1.71666230896980   -0.56197045429052    1.05927468379083
O           1.93381037596786    1.66367131065416    1.58372594412628
H           1.84170615872919    0.73079777452364    1.84266158603825
H           2.25940206301094    1.63507643041863    0.65443854026109
O           1.14196607722476   -0.98821564850290    1.72588854552002
H           1.00446364929757   -0.98585338210467    0.74615581489948
H           1.65476979066177   -1.77503292839338    1.91635205083614
N          -0.59758321858568    2.05440512086118    1.07656501477660
H           0.43749980061344    2.04199987259050    1.36447860599571
H          -1.04301039526187    2.94498077596837    1.26449866308691
H          -0.63000466083627    1.81082755508961    0.05230265225638
H          -1.07709520646409    1.24607525587699    1.57552751863722
