    26
        -50.46532968  Gyration_radius:  2.49563331693 Dipole_moment: 4.898
 S           0.98608302590639   -0.05085574160526   -0.62352648117912
O           1.49851876247070    1.29786705071379   -0.43384431098761
O           0.25504839110246   -0.48812073801829    0.58954574534163
O           0.11758946695711   -0.15832797670650   -1.77818730915621
O           2.17093571022255   -1.01989205273735   -0.80847534850648
H           2.88453744731225   -0.64991928589301   -0.20065542610294
O          -2.34960955713274   -1.00076631710582   -1.76288627436191
H          -2.67545804372532   -1.07376666704700   -2.66078509584572
H          -1.38496871491889   -0.79281500798885   -1.83358669164198
O           1.86106512534278   -0.48398770912816    2.71593256127100
H           1.82862520083020   -1.36602790470742    3.09047265574747
H           1.20226729269558   -0.46870012277012    1.99180969909740
O           3.63986227175951    0.26408390588732    0.83899354369424
H           3.20570571095368    0.03101108191811    1.68579028630058
H           3.15960426848948    1.04035008339730    0.51298520984983
O          -0.66048996132503    2.57395321580414   -1.15960254304289
H          -0.69781136134748    2.31062857134266   -2.08288312417476
H           0.22002358938330    2.24759339622046   -0.85193351078535
O          -2.02080239802840   -2.11381496472989    0.87566850993937
H          -2.27579807514343   -2.15589459138578   -0.05174965073265
H          -1.10707901862491   -1.80218096800065    0.87902714021979
N          -2.00552435439854    0.78936759228263    0.23152787142907
H          -1.14247943368169    0.26146162430978    0.55271712874308
H          -2.60966506321706    1.01813145425889    1.01429416643993
H          -1.62664517434761    1.63705389206655   -0.28615957060902
H          -2.47353510753469    0.15356816962455   -0.44448919095320
