    26
        -50.47391951  Gyration_radius:  2.44004895151 Dipole_moment: 2.202
 S          -1.26810976968090    1.38786409346556    0.44832218887230
O          -0.65824145252959    1.35712930204896   -0.87197870732278
O          -1.55438476736811    0.04009513860473    0.92186090820296
O          -0.54438564436749    2.17960744356714    1.41562173087137
O          -2.66621731965812    2.10482392485896    0.25867681477212
H          -2.78913729561182    2.46867339314069    1.12768218154807
O           2.08704843327603    1.16028126530124   -0.85599186354910
H           2.25566079428272    1.23970306551125    0.09614811934088
H           1.15261809734402    1.40073755966238   -0.96524494289330
O           1.84808561234229    1.23373549945800    1.90908318999127
H           2.27209388732121    1.76290158890739    2.58613451667612
H           0.95205587890931    1.62342929807053    1.77288715641060
O           1.80878671591993   -1.47217070626335   -1.11995232320953
H           1.53695611657367   -1.59978031951706   -0.18278185834266
H           2.13130683367155   -0.54020084304070   -1.14287375591130
O           0.77036542066442   -1.26870232992958    1.33813758364862
H          -0.10279161623605   -0.84439234698693    1.25128584921320
H           1.33803626906272   -0.57819775613271    1.70990345012695
O          -2.11687832550778   -2.27014692779342   -0.24726218786076
H          -1.62124387680972   -2.89286847224192    0.29045210075392
H          -2.10037915423446   -1.42724905778356    0.25326979821112
N          -0.56118372254662   -1.02184230671530   -2.03111988973662
H           0.46086771397139   -1.29923450575939   -1.76400969044236
H          -0.72359069640695   -1.06891514827397   -3.03023063263882
H          -1.22291180973151   -1.63374450499115   -1.49497030672950
H          -0.68442631265177   -0.04153633716620   -1.67304944000494
