    26
        -50.46658150  Gyration_radius:  2.49176508589 Dipole_moment: 2.473
 S          -0.41441262534984   -1.83683929805222    1.05239431414069
O           0.54546943176510   -0.90309675176286    1.60852725297713
O          -1.76624179963465   -1.31628374010890    0.99869402896267
O           0.01741877441830   -2.36514172765900   -0.23617822149499
O          -0.45967426517967   -3.06597012812594    2.05018112997853
H          -1.23204042161377   -3.51815748233314    1.72949253616880
O           2.17654098076718    0.71479085881686    0.21022920850327
H           1.78864454851501    0.11376162547958    0.87401296167800
H           1.50498501265378    1.43250156703241    0.12593339576657
O          -0.28357045042680    1.42357562533998    2.64638678579388
H           0.30365702471411    1.56427784903110    3.39056732216059
H          -0.09579721473817    0.51918139295227    2.32273520408991
O          -0.31159822325121    0.99171178239132   -2.80226030401181
H          -1.06665162631100    0.75943332472016   -2.23015195440500
H          -0.00080583406223    1.84123273879952   -2.47441047175285
O          -2.02403265656794    0.56579675739343   -0.74653390864676
H          -1.91688883936190   -0.18101833427327   -0.09956187951463
H          -2.91929883006169    0.88471270054340   -0.61870351525069
O          -0.00002974143802    2.26745325986049    0.08054360965267
H          -0.73403261526903    1.71261726419904   -0.23668892990393
H          -0.10942279204241    2.24639327228044    1.04909408514937
N           1.41456637783694   -0.78182371705004   -1.76798740061041
H           0.76653829857414   -0.17259574439192   -2.32454521045628
H           1.88940806511951   -0.15793573318548   -1.02952662252960
H           0.84218084722756   -1.48212824416145   -1.21107395728718
H           2.08508858371770   -1.25644911773571   -2.36116947915786
