    26
        -50.46819023  Gyration_radius:  2.44574210587 Dipole_moment: 1.904
 S           0.41811778115649   -1.02693001332282   -1.61981496092246
O          -0.87342937648774   -0.36297658478326   -1.73162289116595
O           1.50361598288526   -0.21750450035664   -2.13638869923597
O           0.65402551322076   -1.51988937067195   -0.27721508137060
O           0.34904230141381   -2.30161043905277   -2.55755219234207
H           0.51908687156834   -1.89272721981502   -3.39844720209779
O           2.04375172174145    1.77721727815384   -0.55951255083820
H           1.88032226477242    1.03063457226822   -1.19074199259853
H           2.64724955607936    2.37500140712477   -1.00367854956156
O           2.33706738500307   -0.07847588172050    1.42143970768355
H           2.10996843865189   -0.76286302464943    0.77261602168274
H           2.37414931955460    0.74050643063846    0.89818722051101
O          -0.71759103563418    2.04665110845591   -0.50768728618190
H          -0.83991034672764    1.25671227965099   -1.06451072108040
H           0.24197169258607    2.15472352541334   -0.42180755069364
O          -2.52062693780158   -1.10790992990082    0.18989492111503
H          -3.26367189923537   -1.53800185263471   -0.23427873208718
H          -1.90763180881343   -0.85784231854777   -0.53649216412412
O          -2.01219582665941    1.15379440453041    1.61976164457652
H          -1.58686941144951    1.66691296945456    0.88989647619430
H          -2.55042448346615    0.48596825726149    1.16110401648485
N          -0.16754886404086   -0.60748843586532    2.09001951079991
H          -0.90957613241964    0.17859095750350    2.00840439395711
H          -0.37525087985168   -1.23236116924418    2.86064674496731
H          -0.16545963172968   -1.12802195364053    1.18620557761744
H           0.81181779568053   -0.23211050625021    2.14157434871147
