    26
        -50.46961805  Gyration_radius:  2.44237278804 Dipole_moment: 5.974
 S           0.52945189268946   -0.81355456485389   -1.67835681387526
O          -0.66439701760971   -1.63120125528187   -1.78756286882690
O           0.25314625096936    0.59175442576449   -1.92122710665548
O           1.23557960105209   -1.04435509345737   -0.42821727922545
O           1.51446687206211   -1.27369761376555   -2.82098839284368
H           1.04472753512674   -0.98103764269770   -3.59391448734851
O           2.18086575280820    1.07153699250575    1.07244868653920
H           2.04645678099183    0.28100254223692    0.52570716925083
H           2.08824175543905    1.82168847717953    0.45281027707201
O          -0.10741465268431    0.99855398578360    2.35314705600925
H           0.82113595382117    1.14072855791568    2.02462149300294
H          -0.67872254432360    1.30211634954158    1.61563632506255
O           1.38237190032181    2.80507558947514   -0.85838095352830
H           1.04623258850037    2.04908185894781   -1.37310746140561
H           0.60459335429176    3.29117414199580   -0.57546677365621
O          -2.45316997611959   -1.50353130674972    0.06987872190562
H          -3.23472110233763   -1.99113484198590   -0.19366212212446
H          -1.81224268694645   -1.57762139359733   -0.68641438246334
O          -1.48024726040065    1.17928902692659    0.05082194064339
H          -0.88942856089808    1.02689348102368   -0.70966373335249
H          -2.07968047188524    0.42330752600457    0.07332713779648
N          -0.27458021247365   -1.46820565090265    1.69910689324220
H          -0.22788173484007   -0.44534465115872    2.12468646375517
H          -1.22203084455458   -1.62804925181185    1.31799404264648
H           0.38424848772797   -1.44278609138627    0.87980415506602
H          -0.00700166072388   -2.18168358765146    2.36697200330485
