    26
        -50.46459276  Gyration_radius:  2.48536879783 Dipole_moment: 3.558
 S           0.61342941376915   -1.70380333510625   -0.65896555111151
O           0.29158223967229   -1.37807020373331   -2.02753339812513
O           1.65353866347332   -0.87686966396869   -0.08502526896397
O          -0.55980875766005   -1.73205204554276    0.22205287429547
O           1.14709953353781   -3.19854737048634   -0.68601198640399
H           1.51478901586845   -3.23391014291988   -1.56214980782631
O           2.13376214712727    1.83931372688430   -0.04622928981695
H           2.07744476154880    0.91702723106948   -0.34406171366327
H           1.24183914501601    2.19771089486705   -0.15368290320596
O           2.19967535088962    0.47987732132856    2.24402984132906
H           2.37486601194747    1.20392637295506    1.60088446272407
H           2.37929611725398   -0.31341118687255    1.71930762261855
O          -0.65225529267925    2.29352224273631   -0.07352353884886
H          -1.19282805366923    3.08089126010358   -0.14564293817319
H          -0.89002555746952    1.71914640512685   -0.86796734818819
O          -2.96250249550301   -1.01780022892946   -0.68531947628729
H          -2.12371676994114   -1.36908465696242   -0.32098469422922
H          -3.32609188680873   -1.71427650618040   -1.23417664554910
O          -1.33895141007459    0.72473612259749   -1.99149152642340
H          -0.66906619549494    0.02814889401565   -2.14570318417963
H          -2.10303435125068    0.24293185712833   -1.61977030858661
N          -0.38122928342600    0.36730220648971    1.79345179048301
H          -1.02155556715647    0.34951116903399    2.57990334248097
H           0.64465616906173    0.43201075303600    2.10789036224443
H          -0.47249150697190   -0.51565726272385    1.21802202497918
H          -0.57842143115050    1.17742614627068    1.16269724855208
