    26
        -50.46485748  Gyration_radius:  2.56516583312 Dipole_moment: 4.112
 S          -0.89913532263839   -0.19525216173393   -0.10577179265223
O          -0.74340369438107    0.03145374636762    1.32738287463232
O           0.40891587994466   -0.23709042243916   -0.76657098811008
O          -1.65987131312495   -1.40917272297359   -0.37481002884652
O          -1.69672232860729    0.99711335245569   -0.69412504369425
H          -1.00561304586429    1.60656095463750   -1.12132968206104
O           0.76508865866637    3.65784524996418    0.65683735096129
H           0.67879499137356    4.61067361810100    0.71172148640533
H           0.00678595019888    3.28210582782659    1.16297862762293
O           0.28797998104446    2.30054338372706   -1.58925950327475
H           0.75478154248975    1.46003496847834   -1.46054668811633
H           0.55613254743231    2.87418966057727   -0.83385116244687
O          -1.42221524865044    2.56247256987228    1.73412617104637
H          -2.13001872286663    2.61237746779246    1.08631493983414
H          -1.16421693879923    1.61753250124269    1.74759900635350
O           1.26834678515096   -2.34929858844771   -2.07961741854489
H           0.85942984821415   -2.32731417540535   -2.94623756001673
H           1.03021380725034   -1.49372040060899   -1.64889565995568
O           1.28400935448118   -1.56358612384586    1.73251168357198
H           1.96113600215205   -1.11677846020462    1.21763719307474
H           0.52496724520347   -0.93250247931288    1.74745596686645
N           0.06690416312272   -3.24635036147017    0.10826630839204
H           0.61535156774841   -3.21073133150035   -0.78190814088081
H          -0.77703128669226   -2.60198673637148   -0.06505285383979
H          -0.19971268543390   -4.18579248332192    0.38010495950682
H           0.62910226253065   -2.74332684346455    0.85503994418571
