    26
        -50.47174051  Gyration_radius:  2.39563861339 Dipole_moment: 3.722
 S           0.82160257585143   -0.86054069855539   -1.07244697647757
O           1.32351257921678    0.11816076460546   -0.09038940541043
O          -0.36919856122286   -1.51678495107916   -0.52355280174428
O           0.56332758685139   -0.24960301443637   -2.35194117860838
O           1.91723717583276   -1.93939319419256   -1.25572657949104
H           2.20542866574792   -2.12639452030409   -0.32875761953554
O           2.42466780365754   -1.89190604206825    1.30661232326984
H           2.43539561050197   -0.94437294286200    1.11317382915298
H           1.57729037218101   -2.03593367869366    1.76994744759142
O           0.30299925541924    2.91461315466257   -0.16264098919447
H           1.06101999765981    2.32749481286852   -0.26820926029326
H          -0.27403554189226    2.70477187783414   -0.91841610029655
O          -1.15208399196593    1.68488362219877   -2.15159239065350
H          -1.36351511754593    1.98867894417355   -3.03606270898428
H          -0.48585034682268    0.95743368361717   -2.26893454896655
O          -0.19931665790537   -1.85287111302303    2.05676342199852
H          -0.66203633823753   -2.65345755147475    2.30818464406714
H          -0.32826354938002   -1.76330093562675    1.08106755151205
O          -2.45177815900950    0.11358262598871   -0.31414914704296
H          -2.27212889739858    0.73928219878685   -1.03709550489750
H          -1.87090445266862   -0.65242216463790   -0.50156813914992
N          -0.65697057398234    0.99523824193770    1.37492586131220
H           0.16263092326987    0.49836692088810    0.92024361638675
H          -1.52391196391885    0.66140298757145    0.84466379558399
H          -0.70453825586130    0.78864979489651    2.36677435961073
H          -0.48058013838892    1.99442119693183    1.13912649027752
