    26
        -50.46873356  Gyration_radius:  2.55177311217 Dipole_moment: 1.238
 S           1.76087725442677    1.06829970580006   -0.71074981024315
O           2.90562778187532    1.46476880301615    0.07379747379397
O           1.52509481391952   -0.37724484021034   -0.65469844646911
O           0.55407275098176    1.80929831369242   -0.40563492530453
O           2.10168150043124    1.39370174348304   -2.22655843493143
H           3.00886226284026    1.11807908729518   -2.31825983334923
O          -1.78374721664315    0.94742946987564   -1.13687633615985
H          -0.89102412898839    1.29247699340483   -0.88103255091715
H          -2.26650888437316    1.69657744934770   -1.48835296592524
O           1.46335900865432    1.84295206392517    2.24918230696355
H           0.83967057808874    2.47235376144895    1.87518873478149
H           2.16222590135355    1.76233893100672    1.56372606029172
O          -0.58881832408021   -1.42452083068300   -1.96007623341816
H           0.27093765423035   -1.14199269016415   -1.59854824787163
H          -1.14782588545608   -0.63454059949625   -1.90620566754239
O          -1.71382453356285   -2.86822064912184   -0.03927088155950
H          -1.23815317958626   -2.43352362953411   -0.79148062957310
H          -2.33658826881267   -3.47731181829132   -0.43675658884929
O          -2.16785267179622   -0.51745170938935    1.14518243305018
H          -2.18791937570237    0.05961129146473    0.35904364879652
H          -2.18272926722704   -1.43399779299717    0.79253365193660
N           0.38401011984106   -0.53777675293009    1.71969544753014
H           0.83849229496803   -0.63356042346603    0.77612373164371
H           0.62665835961542   -1.32403754573747    2.31357976162994
H           0.74694015378370    0.37000985025393    2.11335988207575
H          -0.68351870879390   -0.49371817203952    1.57308840963270
