    26
        -50.47603927  Gyration_radius:  2.46434937925 Dipole_moment: 2.623
 S           0.13038042079569   -0.38761304599163    1.44207607586764
O           1.50714226270904   -0.67864062580416    1.05054479163687
O          -0.24774040729368    0.96187656409667    1.03018795007754
O          -0.80526382782000   -1.37651560049473    0.93483691769226
O           0.04634040532004   -0.45210190500260    2.99613270838463
H           0.81884785614504    0.07301314115085    3.28697886585269
O           2.43616777533989    0.66527755842149    3.09587260363741
H           2.33848121565177    0.24143070491178    2.21875142755401
H           3.12960701471136    0.18664627418176    3.55586939125337
O          -2.77361457930581    0.54723669109814    0.28122398744550
H          -1.91738328684063    0.85627234433273    0.63588202792593
H          -2.84351438735002   -0.35714442868340    0.59913766323578
O          -1.91092736979182    0.54925345532446   -2.25027355990863
H          -2.41535273304928    0.62549339029707   -1.40748427106358
H          -1.16409036457901    1.16373679385387   -2.14801797556021
O           1.83072689823721   -0.53453627757219   -1.59144076148191
H           1.89407610990316   -0.64182483893817   -0.61952976480592
H           1.54820861522968    0.38654728660616   -1.71882829822701
O           0.39134896065432    1.80684294498048   -1.35760485511778
H           0.60194063624627    2.74004907936219   -1.30110614736406
H           0.17294994937655    1.52283199374917   -0.43536691163796
N          -0.56205443927110   -1.61235999295767   -1.67975988751343
H           0.45086035610669   -1.31247493190780   -1.80793158067121
H          -0.76470562091849   -2.49656717852355   -2.13138621265225
H          -0.70962327471364   -1.66372974836800   -0.63811806280459
H          -1.18280822549639   -0.81299963813990   -2.04064611175587
