    26
        -50.47220363  Gyration_radius:  2.42003972692 Dipole_moment: 2.796
 S          -0.72092400626767   -1.05586421597065   -1.15300800999360
O          -0.58705857469779   -2.41094637729948   -0.67885817414833
O          -1.62735849398583   -0.26912466256793   -0.32173796352521
O           0.54756212216276   -0.38318202463974   -1.36122895201894
O          -1.39587371396212   -1.13871012665232   -2.58764968732711
H          -1.93760108439764   -1.91457295854624   -2.49556524644803
O           2.36317204560473   -0.14303962063054    0.50123357252704
H           1.71513875086258   -0.20850980339324   -0.23795095815296
H           3.22369709747908   -0.03454951549424    0.09345094209471
O           0.81187750540070    1.74523848222074    1.80408376597329
H           1.53366626279892    1.23966410197509    1.39293375107170
H           0.29845198594369    2.14136665901932    1.05988597676352
O          -0.17627308181503    1.70219319105603   -2.87560304595284
H          -0.87814088816000    1.36028106876848   -3.43184087321264
H           0.19634621791981    0.92814946240654   -2.41755640039526
O           0.86125103561277   -2.23877600075093    1.56542811333752
H           1.61309630122277   -1.69193401501783    1.28656890054876
H           0.38547083916748   -2.48248269153983    0.74490945456027
O          -0.78742018686372    2.31799681987551   -0.24471699937682
H          -0.47440967475424    2.46712559798646   -1.15059725044672
H          -1.22111027171250    1.44852230780246   -0.28287956405878
N          -0.77101232702976   -0.27863035368204    2.19064993885928
H          -0.14534444346892    0.60393608334741    2.18702122381763
H          -1.28577607145247   -0.27500113019452    1.27941957629621
H          -0.13622292091414   -1.12987778030555    2.15288168530046
H          -1.40520442468713   -0.29927249778780    2.98072620390733
