    26
        -50.47191644  Gyration_radius:  2.41600865384 Dipole_moment: 3.491
 S          -0.20247968965927   -0.97070560840726   -1.64960593217326
O           0.16688485716804   -1.50087166686216   -0.34237821270330
O          -1.61583843687801   -1.04817807091723   -1.92092407774970
O           0.34763152278526    0.36461609567555   -1.84464139686762
O           0.50103601383080   -1.90978805348649   -2.70970100816637
H          -0.11369548770869   -1.81898322578000   -3.42847538906222
O          -0.71568492386336    2.00697586218618   -0.05077220185277
H          -1.62870918541099    1.63166196648778   -0.04009670388796
H          -0.28311993847693    1.52933977790132   -0.78915978342701
O           2.24283327551211   -0.48342700778494    1.00692005710244
H           2.66953632807169    0.07598544024032    0.32599779880506
H           1.62195312903080   -1.04294193411426    0.49874935486631
O          -1.40377733552713   -1.30658831536196    1.72994458108088
H          -0.86161793770148   -1.44398123131160    0.91241828999731
H          -1.51953086481405   -2.17436729603975    2.11928274238441
O           2.79695262659933    1.05950190995976   -1.11430706755813
H           1.93910767747488    0.77039210368611   -1.49231185113737
H           2.80480807787657    2.01559317370568   -1.18243983548280
O          -2.82104086467193    0.40915452752255   -0.03001296982023
H          -2.65940305496096   -0.17653975415636    0.72058104042920
H          -2.54163117301671   -0.10320024183327   -0.81413894314215
N           0.25831730070847    0.83950960299702    2.05345524454497
H          -0.11609310124419    1.42403139609646    1.22050887025327
H          -0.43185129010210    0.08682555554356    2.21807245515851
H           1.16408198663953    0.35976513577748    1.72205249353773
H           0.40133049833859    1.40621985827364    2.88098244487103
