    26
        -50.46703644  Gyration_radius:  2.49150760608 Dipole_moment: 2.678
 S          -0.27686032218936   -0.88651172745232   -1.75372574216349
O          -1.60903468466271   -0.85190795326067   -1.14505944044276
O          -0.08583893762684    0.21024588502113   -2.68767663751826
O           0.76617689081184   -1.00610610436940   -0.77087665600326
O          -0.24411021264495   -2.20608630651634   -2.63583005162762
H          -0.77158440011140   -1.93489313365885   -3.37944875729429
O           2.77079689161287    1.62188571847233    0.33013162323083
H           1.97571190033049    1.87278877121586   -0.17616904378275
H           3.35974258762730    1.20598392187071   -0.30268268319985
O           1.87455439949705   -0.57325076227667    1.60731890374601
H           1.59314704779979   -0.96479155232276    0.75902840519433
H           2.28260354451512    0.27741776380703    1.33789337006721
O           0.59704907422169    2.21486022130601   -1.23291743575399
H           0.39663139346477    1.43455845964571   -1.81881998681922
H           0.55584080311634    2.98900605682085   -1.79769213893728
O          -1.86038730250023   -2.19967221175360    1.08757117635418
H          -2.80048670141967   -2.38446551536789    1.12188437887635
H          -1.70383527628105   -1.78063646837866    0.20665267029475
O          -1.46478754370580    1.36188078809521    0.32753365834734
H          -0.74001226383877    1.83858576585631   -0.11510173061868
H          -1.65769557138818    0.60233021076115   -0.26122751770769
N          -0.59761763803632   -0.15968581115249    2.29550745209991
H          -0.93628322576817    0.57608057761250    1.60700164974937
H          -1.08558262938833   -1.04200852561677    2.01760129361192
H           0.45704508561131   -0.31018508517269    2.12309049441263
H          -0.79518289905072    0.09457702683270    3.25601275588879
