    26
        -50.46810372  Gyration_radius:  2.56228479521 Dipole_moment: 3.968
 S          -0.56808615575109   -0.96931122445661   -1.78890741383281
O           0.11570946888550   -1.64438079818635   -0.68074419953437
O          -1.90050076765771   -0.55574562877999   -1.39775447549597
O           0.22019635621632    0.09510539866290   -2.36576078076834
O          -0.72517717851797   -2.06275411231013   -2.92358029345733
H          -1.20548792340926   -2.77293333341042   -2.50770130643812
O           2.51587205296940   -0.45497098311156   -0.93029532979877
H           1.76696680366005   -1.04890332482806   -0.74690032219871
H           2.28535472043871   -0.05681217987498   -1.77661499087667
O           1.45112921762290    0.44242818895294    2.97855872991008
H           1.84245521419264    0.99423007347803    2.25225750007989
H           2.10344572214350   -0.23088596549258    3.17708465324159
O           2.23959546065164    1.63018244034932    0.76255509629174
H           1.49595273733996    2.05567127110546    0.32115787398164
H           2.48900940537308    0.87861683556894    0.18148695665421
O          -3.14200653083944   -0.71004844584213    0.94600070297574
H          -4.02002092913480   -0.33449902972028    0.87172074615112
H          -2.77040040139528   -0.72090764632445    0.03721478457124
O          -0.29667972000818    1.92711589635304   -0.57986186026923
H          -0.06215055217818    1.30285337592375   -1.30846535952684
H          -1.06486536786804    2.40804176019937   -0.89258642934121
N          -0.55931143818930   -0.03489362942317    1.30378542222091
H          -0.53528990526143    0.83641716111330    0.73501359608457
H          -1.53456689162254   -0.23647877565164    1.57372529256004
H          -0.25218449258683   -0.79583828250786    0.65058538173617
H           0.11104108493024    0.05870096821407    2.10802602508030
