    26
        -50.47172567  Gyration_radius:  2.5255354405 Dipole_moment: 1.046
 S          -0.32763531706234   -1.46637264638423   -1.32338458843203
O          -1.65831866317858   -1.01042578885929   -0.94693293283617
O           0.14734526825876   -0.84658830174173   -2.54290151604535
O           0.60565033984373   -1.35251790373318   -0.21440076042076
O          -0.44455276079770   -3.01220391095658   -1.64283465796278
H          -0.69199705163548   -2.99796041948041   -2.56114280156267
O           2.53243596028319    0.57646256038227    0.06411598142691
H           2.04916534492936   -0.26037920042771   -0.03415868058912
H           2.14846631533051    1.15178038120877   -0.61520223253054
O           1.92102568923197    1.27920797534273    2.55781203778940
H           2.25236926234414    1.12450150538166    1.63867646165778
H           2.55670916601309    0.86309424840791    3.14099934433687
O           0.92768325638039    1.57335538053977   -1.97662859509527
H           1.14304348963197    2.03530588670781   -2.78856133150108
H           0.67829208839229    0.65287245338125   -2.24061148270221
O          -2.54947393238240   -1.30883966199368    1.57495579888302
H          -3.50601029432991   -1.35514715037691    1.55902356586539
H          -2.26453094659574   -1.29161011678580    0.63836506321360
O          -1.35267238995321    1.62430711976021   -0.45420909082501
H          -0.57464578646430    1.84452137684950   -0.99461514881108
H          -1.65436727258991    0.75502425586067   -0.77683815180726
N          -0.38783573518702    0.29419730930719    1.62495331019757
H          -0.78414113182981    1.01500031630923    0.96295198533140
H          -1.16354821699155   -0.15478959382382    2.12460562340035
H           0.03703386451820   -0.43529943231444    1.00270547032083
H           0.36050943384716    0.70250334744172    2.22325732870781
