    26
        -50.46977757  Gyration_radius:  2.43887953198 Dipole_moment: 5.758
 S           1.57568853150759    1.00524615188717    0.09394982335664
O           2.05812536708744    1.17408271808416   -1.24787527449191
O           0.32020735098242    1.70392752018159    0.35815173356979
O           1.48269514071727   -0.38610785485071    0.52594596380170
O           2.65947352684507    1.66336969574958    1.04372391216023
H           3.03638843526900    2.30379234640525    0.45123139411579
O           0.16347010672067   -1.96817663068779   -1.10886589263682
H           0.68914437517295   -1.39276899351000   -0.50775123207256
H           0.67317242493718   -2.76917888303352   -1.23784334162840
O           0.60921730703878   -1.12771167920042    2.89733364987946
H           0.77744256745377   -2.06669258219073    2.99046522695950
H           1.08692638566016   -0.83982927532107    2.08722361356296
O           0.28060075974518    0.11732551570085   -3.00944541333564
H           0.19289161546375   -0.74918005823474   -2.58762101913688
H           1.00983377030271    0.55901010923253   -2.54041355903824
O          -2.29411238873107   -0.92281775607350   -0.37184648704717
H          -1.56684675349284   -1.48102642845931   -0.68976559959450
H          -2.22924599072748   -0.09496133097174   -0.92028947998672
O          -1.63271634175279    1.31980646889671   -1.57105005009023
H          -0.99594544163524    1.67670038936874   -0.93314823011623
H          -1.07571479294915    0.97968053390987   -2.30432279817925
N          -1.38257418275256    0.26032442374044    1.74451467618807
H          -2.07473832584449    0.77377853452429    2.27860873491738
H          -0.71533885624271    0.92413232407792    1.26274884019796
H          -0.80403886717801   -0.35323502030784    2.35353676406813
H          -1.84400573359531   -0.30949023891787    0.94280404457738
