    26
        -50.47192576  Gyration_radius:  2.43574323688 Dipole_moment: 1.704
 S           1.52644598469561   -0.10385076111661   -1.35109206552745
O           0.25661077627476   -0.06379469537285   -2.08358674640118
O           1.86359878907540    1.19582421045417   -0.79993381312633
O           1.56393660248979   -1.18025931971853   -0.39132936589682
O           2.64077579001446   -0.42348323011584   -2.42960642519183
H           2.72583027147748    0.40699028945408   -2.88624678272475
O          -0.50929563661756    0.12623227953756    2.43310392027996
H          -0.58424182846483    0.30932267620142    3.37055372808542
H           0.42941531604690    0.34537672993205    2.18247922147961
O          -2.33013588536571    1.02578360473422    0.56533943498162
H          -1.81874871547544    1.65408017879908    0.00782283663562
H          -1.75502658820140    0.81491432624710    1.32252349924420
O           1.99087683058867    0.50553707673224    1.73290568951865
H           1.99174667956912    0.92645080802042    0.84754833713205
H           2.27644945310177   -0.39525426123490    1.54771060852001
O          -0.40212951601860   -2.27469676074693    1.06253142524515
H          -0.49494892987674   -1.56107374584926    1.71875162840019
H           0.42088273713649   -2.06477540127019    0.57934873854088
O          -0.63794643542460    2.26956683646763   -1.09286386280431
H          -0.40580747581467    1.48807956321750   -1.62597053050467
H           0.20385470630592    2.53097595571114   -0.70494952540579
N          -1.81701416392344   -1.12598635174717   -0.82152972659709
H          -2.53308483193913   -1.59334417762935   -1.36482658988025
H          -1.03152124255395   -0.78634581106284   -1.43179615478713
H          -2.19376891052663   -0.26629242095350   -0.29858161690750
H          -1.37675377650739   -1.75997760870915   -0.08830587228250
