    26
        -50.46435372  Gyration_radius:  2.42387574112 Dipole_moment: 5.980
 S          -1.27727435673475    1.15243620216564   -0.94754842922801
O          -0.02414928041289    0.94410236182529   -1.66903523964095
O          -2.07957320176382   -0.05780549905834   -0.92813644843260
O          -1.05770000044786    1.73007926967018    0.35763725904898
O          -2.11804856972220    2.19759991412910   -1.78542279046457
H          -2.57459594722444    1.59965543013794   -2.36574049017135
O           1.96929271702436    0.86011809725490    0.12939966095050
H           1.31565520479839    1.06324196541710   -0.56747889928468
H           1.76678750258978    1.48007036827668    0.86722526128156
O          -0.33203483358702   -0.09927024941995    2.21126118823523
H          -1.01881585730870   -0.76456711321649    2.29213390476567
H          -0.66863616040406    0.54355625137092    1.55969779525731
O           0.99481244435992    2.44952072081399    2.05542660741120
H           0.21050165640676    2.55294325778502    1.49505095622440
H           0.75816459158284    1.75868176906448    2.68408538699678
O           0.84529634468639   -1.43380649974384   -2.34561664822111
H           1.56354361501541   -1.23041357870199   -2.94773549008353
H           0.41067468744669   -0.56574224169161   -2.15849854738414
O          -1.41842344207943   -2.06969884899080    0.58103976755375
H          -1.71822418975340   -1.29308936837303    0.04305324413090
H          -1.71973294603480   -2.84092926810519    0.09803486687884
N           1.24676861780104   -1.62185438282396    0.28761253411513
H           1.21117905566800   -1.76445950427811   -0.75060429222960
H           1.56040159152856   -0.59162956228415    0.41222882728044
H           0.27013546025360   -1.73946735668440    0.64109747764830
H           1.88399529631122   -2.25927212453868    0.75083252736154
