    26
        -50.47110234  Gyration_radius:  2.5187333539 Dipole_moment: 2.621
 S          -0.50479626307916    1.19274029061220   -1.57156788151271
O          -1.02345212961622    1.13019426036200   -0.20305708393703
O           0.95342092063628    1.19010017772787   -1.55744482977910
O          -1.07347410928574    0.19825122907882   -2.43899750382719
O          -0.94799588468737    2.60338745040546   -2.12714843856950
H          -0.64838130178364    3.19543914991450   -1.44486812805415
O           2.31876507853213    2.22083076518270    0.48720231706620
H           3.22681621698019    2.35708182244068    0.21336041735006
H           1.84355833946693    1.90387576828216   -0.31097267894951
O          -2.13652357745969   -1.15750520933395    0.83145121696171
H          -1.79866187017709   -1.75620722247112    0.14748816070952
H          -1.95866860188857   -0.26766958068378    0.48384086294589
O          -0.90242306789473   -2.19895766983606   -1.43180666273924
H          -1.02693710306672   -1.31670228048559   -1.86006062586168
H          -1.18834080582944   -2.85065301799607   -2.07404528881631
O           1.59908806942171   -1.30148808516228   -0.74101684836129
H           1.51388093928483   -0.47176446999968   -1.24549256558951
H           0.82128533752127   -1.83417698731072   -0.97994553171710
O          -0.71124039727266   -1.21842247418157    3.07702670376809
H          -1.26319832205486   -0.89873984535271    3.79136714805091
H          -1.30800155186798   -1.31892145884849    2.29429946772963
N           0.85735647318579    0.11712980588170    1.36773028543027
H           0.07695780202830    0.57485626899767    0.83319433692565
H           1.26373121061099   -0.59250999107727    0.69925942915375
H           1.55902461335439    0.84439633466958    1.54895885868994
H           0.45820995494096   -0.34456503081612    2.21124488293169
