    26
        -50.46761661  Gyration_radius:  2.51424989262 Dipole_moment: 3.923
 S           0.62159121012011    1.42779603032948    1.00957163252312
O           0.29139454014830    2.73863070815989    0.51108282238670
O          -0.50782080789947    0.67012518207802    1.52027542740657
O           1.37279506973660    0.62535365028544    0.04162714657881
O           1.59739545868283    1.67342416334933    2.23474581697558
H           1.66236545911917    2.62194994070652    2.21993487641389
O           1.04926296406162    1.05317279964466   -2.57702224239795
H           1.59786578876487    1.74495446924295   -2.94907426187571
H           1.29944978117254    0.98153086428703   -1.63355285618438
O           0.31950267433974   -3.43694588016807    0.45126293495649
H           1.21156677267539   -3.78198931992228    0.51296508640128
H           0.18950858111451   -2.88283577867618    1.25749324423977
O           0.06317177596671   -1.72245733953673    2.46823989184046
H          -0.08103366641834   -0.81215498438079    2.12536127337071
H          -0.62184809284761   -1.86270008446523    3.12434525056833
O          -2.33849068399067   -0.04894777871863   -0.33133105298537
H          -2.21963845432809    0.76321267309811   -0.87728844881158
H          -1.95158021391197    0.19807508934409    0.52635533443075
O          -1.32461804465077    2.07162009314048   -1.54765030828548
H          -0.62825690103720    1.74461005328882   -2.14001076791316
H          -0.85070944968472    2.47599862272427   -0.79913349631472
N          -0.14792809833877   -1.27010124656974   -1.05141684067970
H           0.51095225994850   -0.60245780209212   -0.58057655276428
H          -0.00858029167620   -2.21883448310678   -0.63176680399435
H          -1.13488891460300   -0.89996854763224   -0.83271149425255
H           0.02857130353855   -1.25106108437764   -2.05172559166340
