    26
        -50.47229333  Gyration_radius:  2.41201700826 Dipole_moment: 3.397
 S           0.28631961778806   -1.71480489434099   -0.11575115469230
O           1.35945804021164   -0.74481184867664   -0.07506447695678
O           0.04748629298028   -2.35185546014491    1.16776485545396
O          -0.93858002993959   -1.18120536287210   -0.68903931846865
O           0.78234743962361   -2.85997419743275   -1.10184301942380
H           0.19703146437213   -3.58049308524631   -0.89283414902053
O           1.97076853476902   -0.41994101948484   -2.64887099889426
H           1.90477583377174   -0.52921195903559   -1.68167950808233
H           1.91426968387025   -1.30502573634257   -3.01301013795270
O           1.26746573063051    1.40424244986829    1.52361985726336
H           1.57164782783136    0.69695889742358    0.92556059799003
H           0.70143108839047    1.96758513232500    0.96217639847328
O          -0.55289759735132    2.50449210798053   -0.19824691829866
H          -0.43389636618382    1.94864786925654   -1.02204155602442
H          -0.68263207170337    3.40326982073453   -0.50276353530125
O          -2.29151221689332    0.61761964211710    0.79593071172111
H          -2.02287229073321   -0.08339557866163    0.17141406324189
H          -1.84943296577458    1.42210446549055    0.46560763681697
O          -0.38292104620105    0.92035349260149   -2.26101119004591
H           0.50335251158691    0.68111831073149   -2.58573344259250
H          -0.69314706876208    0.11884218877779   -1.79894009128050
N          -0.53519699977134   -0.18854028786910    2.55458178233529
H          -1.38574326462650    0.15474139983762    2.00544832837847
H          -0.28046300959102   -1.12499733717808    2.14475211144308
H           0.25471364574163    0.49499972995269    2.31884071577539
H          -0.71177278402949   -0.25071873980934    3.55113242813357
