    26
        -50.46855994  Gyration_radius:  2.4632163931 Dipole_moment: 4.061
 S          -2.08208136762707    0.08662942761466    0.20894197895206
O          -1.72051705094237    1.46259894322238   -0.10254834168833
O          -1.86003027542276   -0.79794325497297   -0.92045754579196
O          -1.46826380939973   -0.38127516703539    1.43742208032063
O          -3.64103860727694    0.07563174999129    0.47747702308525
H          -3.98520355417770    0.22867041007269   -0.39556440494971
O           1.69886570618862   -1.45014999522643    0.19630701656061
H           1.02863128168658   -2.14770029041020    0.35081061781484
H           1.54665536082614   -0.81994718856551    0.91667053907139
O           0.90495734477093    0.44176675252012    2.13046567785340
H           0.94641307049695    0.34555675218357    3.08319457815935
H          -0.02421444316370    0.22011330820166    1.87853424311155
O          -0.60963434325266   -2.79263239084746    0.60400453081441
H          -0.97343329585913   -2.01847604512749    1.07001342221966
H          -1.06098457249327   -2.78618292875963   -0.24526920835410
O           2.52768853183821    1.67826544159819    0.35026493146464
H           1.98965257122322    1.40120220911849    1.11508584319409
H           3.02587489716680    0.89712015361746    0.09221178653112
O           0.53165057569856   -0.67882475515520   -2.09019205392955
H           1.08637523557271   -1.04173147365599   -1.36115870060917
H          -0.39109708240477   -0.83497730585343   -1.79939269122848
N           0.51411585418387    1.81482149375949   -1.41383886598762
H          -0.39077632671480    1.78711386344687   -0.86452547460269
H           1.32191741662701    1.93014981006107   -0.75431434466941
H           0.59161118352395    0.82997548036203   -1.85359673793316
H           0.49286571896078    2.55022499982494   -2.11054586938117
