    26
        -50.47328335  Gyration_radius:  2.39693498446 Dipole_moment: 4.189
 S          -0.08836987324067   -0.41949329250039    1.65882801185708
O           1.15899456923125   -0.34231275163216    0.89583895088697
O          -1.07973408983620    0.50968047629672    1.10817038469920
O          -0.59585320311842   -1.77790749914939    1.69188014890651
O           0.21984355266151    0.02538757085511    3.11193167034933
H           0.35820287131013    0.99792122165304    3.01791991706393
O           1.40703202762713   -1.49684413907280   -1.50233406511532
H           1.15825012439467   -0.67935196769509   -1.99898462658979
H           1.56212265884617   -1.17712197716113   -0.59152833778446
O           1.67445680186259    1.99186462090054   -0.11249738988437
H           1.50177601403875    1.09920516327123    0.28119050779388
H           2.61963763814594    2.03628652461109   -0.26774121076648
O          -2.08449101665170    0.04085114501731   -1.21420098797414
H          -1.71923155227029    0.26001166431680   -0.31280270524810
H          -2.94758681473645    0.45514537825451   -1.25741068151878
O           0.40676079735960    0.82940677380288   -2.31971873291788
H           0.78280543762327    1.41627547719630   -1.64127966172893
H          -0.51791282171941    0.68883834427992   -2.07101825862995
O           0.26949656256370    2.50046810739871    2.24325773703823
H          -0.50306180327492    2.12339275103451    1.79286781208246
H           0.91454591941973    2.63544609192503    1.53091248945803
N          -0.92217100746237   -2.37536970146774   -0.82394907888262
H          -0.83600244497534   -2.26602295396324    0.23180025404941
H          -1.56215945626445   -1.62932640957453   -1.15123801725430
H           0.06750800998136   -2.14554416225979   -1.21696503384359
H          -1.24485890147136   -3.30088645635130   -1.08292906607204
