    26
        -50.46143066  Gyration_radius:  2.6199582995 Dipole_moment: 4.963
 S          -0.70185465852650   -2.25068916229504    0.73957098226024
O          -1.37985707836588   -2.03187409122379   -0.51673750845135
O          -1.34345990333064   -1.64233956134906    1.88563441812047
O           0.71700973887946   -1.87500340807705    0.65397318153250
O          -0.71861409470127   -3.81904557048103    1.00345235156398
H          -0.55145650962667   -3.87341314131536    1.93944880565223
H           0.79441826646900   -1.20685309501099   -0.79841358247354
O           0.69860336893566   -0.68357699225956   -1.63795322634225
H           0.08167832747137   -1.20606433523003   -2.15778217375759
O          -2.97474496987396   -0.12404730810376    0.50883737996579
H          -2.89080393360727   -0.79343505131951   -0.18576203162996
H          -2.55230085577490   -0.57733121882812    1.26889834824820
O           0.54933872388897    3.38730399016565   -0.96021491587319
H           1.30182682635719    2.76989297836074   -1.00646490832049
H           0.81924700132560    4.10621438251340   -0.38739401795850
O           1.20119020170906    0.56755582801114    1.57380370713600
H           1.07534604337772   -0.39614796342295    1.44197464618965
H           1.92605833129283    0.82047329823017    0.98765633836921
O           2.42249884793464    1.33520789293651   -0.96002638933859
H           3.26034615466650    1.29891995594557   -1.42353417531687
H           1.88381997892447    0.60288535911473   -1.30947199529562
N          -0.74785749476291    1.13916087854867   -0.13702693779167
H          -1.72778711415873    0.82795894816860    0.11519278642931
H          -0.66065365449179    2.11085253726146   -0.47066737413501
H          -0.10809883630022    1.01588380942283    0.69586092136808
H          -0.37389270771122    0.49751109023589   -0.86285462015274
