    26
        -50.46810379  Gyration_radius:  2.51195125798 Dipole_moment: 1.203
 S          -0.07464589022216   -1.21736498167689   -0.72194006464141
O           0.13615731987630   -1.83276906951072    0.57569184825666
O           1.12365588118323   -0.53593459686529   -1.20824769175153
O          -1.20926372296184   -0.30117911337349   -0.69070505452338
O          -0.41043757654247   -2.36143144283685   -1.73211495092413
H          -0.43411461620139   -1.89537881214185   -2.58826105904268
H          -0.92566496716650    1.29543094723107   -1.06807039499783
O          -0.72889167439734    2.25525968027340   -1.15867521077345
H          -0.66707772351539    2.41774048930619   -2.10104023024385
O          -2.26883233164411    1.29478933165189    1.23053230097569
H          -2.13647967385549    2.11587357432518    0.74547060727048
H          -2.16959970049658    0.59608289328086    0.55793093652451
O           0.16418195724376   -0.56542635448175   -3.62757177391697
H           0.65840842876316   -0.36682461035077   -2.80357428197839
H           0.81782692576554   -0.82016782560153   -4.28256223056598
O           1.52440954342276    1.67489330287831    0.24895419985064
H           1.62710046693522    0.86995779055319   -0.29632342024163
H           0.81987045522054    2.17220954630392   -0.20885653134102
O           1.18085621557551   -1.91464643267336    3.19208189971898
H           1.55760545656543   -2.71917354317181    3.55047074122808
H           0.90088699795468   -2.12581415369164    2.28974135940916
N           0.10250331101302    0.40812730205383    2.05414517210873
H           0.05323700493243   -0.50114786075431    1.53624409765744
H           0.43433263567507    0.20450360051961    2.99503194581209
H           0.77789496043210    1.01574373748124    1.49648953195620
H          -0.85391971354806    0.83664661131316    2.01515823418078
