    26
        -50.45796978  Gyration_radius:  2.57983498744 Dipole_moment: 5.749
 S          -2.03299581364387   -0.80404961019821   -1.11498109238785
O          -2.11660257202433    0.61520315137933   -0.88403104512959
O          -1.33647237318212   -1.49315148924354   -0.02657492531315
O          -1.51248180738292   -1.18324424387491   -2.41518940562739
O          -3.53148368000239   -1.35701215311094   -1.08367668639729
H          -3.46586452919955   -2.16867361093358   -1.57808937838514
H          -0.13790582150666   -0.47445040434888   -2.10293894595658
O           0.72372374809470    0.00136252376918   -1.97661090245347
H           0.90533480267140    0.41722283934219   -2.82294783095646
O           1.23215246378869    1.95747621171380   -0.05278570689592
H           0.97825641231544    1.31839651816205   -0.74018480427018
H           1.69212370147061    1.44918083338533    0.62526637522504
O          -1.23068220409390    2.27758700276057    0.98430474644548
H          -0.35201441052785    2.46107007947603    0.58971851246318
H          -1.73289333086968    1.85461860893582    0.25835798009769
O           2.16213056421428   -0.09011728755911    1.78409960800053
H           2.29630305975656   -0.63132198705629    0.96581962731151
H           2.80697761462983   -0.39763304757211    2.42214160600687
O           2.51999491064108   -1.37607483840684   -0.49796820763305
H           1.78224397144750   -1.02359842816223   -1.03627824865888
H           3.32084814040654   -1.19752272513235   -0.99451864660855
N          -0.59050190249824   -0.03724466466017    1.97131091441112
H          -0.91322661423943   -0.66995767213513    1.16504599137087
H           0.44191745961921   -0.08533691894268    2.02770943471935
H          -0.88778428037725    0.96609280503023    1.69213435465689
H          -1.02109749952148   -0.32882150261308    2.84086672596295
