    26
        -50.46457670  Gyration_radius:  2.57517203822 Dipole_moment: 2.133
 S          -1.04973384036715   -0.22218179738489   -0.77254090406998
O          -1.12374262530308    0.09608614786750    0.64883944713448
O           0.34097414278592   -0.37637594734248   -1.19321153243992
O          -1.78090909682502    0.70817913373077   -1.60313278444817
O          -1.72367854645645   -1.63903520183320   -0.89264156536724
H          -1.95525698492321   -1.72756276720462   -1.84036809324172
H          -0.44379154240237    2.40091037968482   -0.98497539893253
O           0.48303310004383    2.24571940070418   -0.77987400864633
H           0.61694838812311    1.31451184026160   -1.03257210234774
O          -2.39297842376540   -1.10387309848089   -3.39122418928772
H          -3.32928754913325   -1.06691729471078   -3.59978457381957
H          -2.17401158510091   -0.25319312098565   -2.95600180014318
O           1.55606645397806    2.69613095053135    1.64920196353154
H           1.00829468648300    3.37054697320960    2.05371916558598
H           1.23787676873589    2.61094290361055    0.72218315961741
O          -0.62813069456884   -2.20715647974865    2.04534598659879
H          -0.73468610256372   -2.98235388876629    1.49236286337843
H          -1.03815961672090   -1.48128637542430    1.55029543681070
O           2.52832162571477   -1.12144770917051    0.04109224050913
H           1.72011821461990   -0.99545747430542   -0.50762243624336
H           3.22833473802147   -0.65130989031036   -0.41594015663801
N           1.14979795010919    0.07862155122524    1.98459808072298
H           1.81988754723406   -0.43309710299526    1.35503682880704
H           1.43778758750170    1.07675688549793    2.09369093204499
H           0.22113665661870    0.08795560823477    1.47550023679723
H           1.02578875815644   -0.42511362588805    2.85802320409126
