    26
        -50.46923882  Gyration_radius:  2.45318338313 Dipole_moment: 5.956
 S          -0.92114585159833   -1.87598606006508   -0.30088661851451
O          -1.61526040868809   -1.12285144049531    0.74532122521547
O           0.43797821254699   -2.18896625427994    0.05175520556115
O          -1.06608048619032   -1.21524044075318   -1.58909923794529
O          -1.69638500178761   -3.24837217901708   -0.43310973859955
H          -2.51489149564483   -2.94410756877565   -0.80817886966279
H          -0.09479679846794   -0.09360777334430   -2.08303828643733
O           0.49773477497519    0.65339049196465   -2.38249973149375
H           0.30218959650168    0.77997799230629   -3.31199740640319
O           0.38180418376012   -0.80736054567832    2.47475178111815
H          -0.41758785040823   -0.90933921302488    1.92132146714272
H           0.91487168400444   -1.57507423910598    2.24772307614948
O          -2.21457935692057    1.40534577604651    0.75450106641854
H          -2.37521393755902    1.54537552945103    1.69012471946940
H          -2.06773942128848    0.43117696641189    0.66355781084434
O           1.85807839275796    1.09523988990402    1.32881503658819
H           1.34209785791473    0.47491040638273    1.89635346756008
H           2.27866655079098    0.51101824176874    0.65077253109574
O           2.42658174204692   -0.53810375943461   -0.67464835402225
H           2.02337456254658   -0.12737903996158   -1.44979024224176
H           1.81297874408834   -1.25446908143717   -0.42023601299256
N           0.13471195889403    2.22777858229546   -0.20372861188833
H          -0.82328367874857    1.99095704134747    0.16368131800345
H           0.88106044918329    1.81406740990295    0.49235759655903
H           0.26650751673847    1.74211067895469   -1.11546114897049
H           0.24832804056412    3.22950855863191   -0.30836206255210
