    26
        -50.47163156  Gyration_radius:  2.4116139507 Dipole_moment: 2.515
 S          -1.03429806103436   -1.31571368296939    1.00942945307265
O          -1.56168747823528   -0.33809677885920    1.93532181590559
O           0.38203100043511   -1.13258152831781    0.73399376003117
O          -1.80977796025325   -1.43880341463947   -0.21385004656407
O          -1.12713804127601   -2.72177913291203    1.74491324874230
H          -2.00918324911486   -2.71852596634460    2.10258780929397
H          -0.75108225388993   -1.58785450518676   -1.43430794406268
O           0.00584146867996   -1.65969319887864   -2.06538990816496
H           0.59251660817062   -2.30611112609278   -1.66627906979525
O          -0.12589813869572    2.37395128233296   -0.50484621235320
H          -1.06194014687702    2.07222529069891   -0.44377056699669
H           0.24835605263558    2.18681757795272    0.38046673032896
O          -2.46202102673841    1.18262630507446   -0.05893819029123
H          -2.27455279689671    0.83533843432307    0.83140755235571
H          -2.54687935023073    0.37813794710947   -0.58535419340601
O           2.82537113490717   -0.08666907044965    0.21704965648594
H           2.11478398100271   -0.70297996368901    0.46364264457607
H           2.77383339773308    0.61436512028311    0.87540759888945
O           0.74332948084061    1.28156066830644    1.81931025205751
H           0.56713325894660    0.37403491105417    1.49869985117664
H           0.07047533552677    1.42810808546497    2.48847177674460
N           1.29737543234606    0.66299555054738   -1.85248157778945
H           0.74017375321139   -0.22095460069149   -2.01468746431781
H           1.69182683084749    1.00787013373393   -2.72026179735308
H           0.66638213814380    1.40543060090309   -1.38814900101343
H           2.04502861980600    0.42630106124926   -1.15238613755212
