    26
        -50.46258721  Gyration_radius:  2.62145383441 Dipole_moment: 2.564
 S           1.00685957459949   -0.91900639274852   -0.71050430933036
O           0.03521472953709   -1.27480094081451    0.32140694436856
O           1.45486553405968    0.45718173634521   -0.55158422867873
O           0.49474624548170   -1.19474903404652   -2.04575723550401
O           2.26969267188829   -1.81566593007421   -0.48824010509543
H           2.01063135560911   -2.69168899136376   -0.84003147628531
H          -0.41356562132318    0.25167035121060   -2.31319935647058
O          -1.92432078666700    0.56055780870756    0.17286452605037
H          -1.48002575964794   -0.30478858840948    0.24824911388902
O           1.11662262360096   -3.73844013487716   -1.89338558649726
H           1.55863363147693   -4.02518060102829   -2.69590982300156
H           0.66206823838591   -2.89964514678648   -2.11366622020611
O          -1.84566018051413    3.34837024311832    0.99923968308191
H          -2.28584672150295    4.05694970894402    0.52822750681388
H          -2.28208740958316    2.53051933012240    0.73071534933330
O           0.61144037627100   -0.78663606791339    2.84710599944578
H           0.04073288527708   -1.32513760714710    3.39745818175665
H           0.47850085502206   -1.10512492048497    1.92429810654919
O          -0.77094481600633    1.14768439039051   -2.16051336586189
H          -1.70143337407122    0.84888485196695   -0.74192078643387
H           0.00517159873823    1.67214911539000   -1.94362735535249
N           0.20516793528429    1.47400168432445    1.49333068455270
H          -0.75002075675897    1.23801171019757    1.10603522825047
H           0.86346889726820    1.19805628648973    0.70956258972719
H           0.24009517100313    2.46144372117253    1.72996383789111
H           0.39999308260039    0.83538341730877    2.28988208701299
