    26
        -50.47676531  Gyration_radius:  2.44746151509 Dipole_moment: 3.269
 S          -1.29432251328400    0.55274658973283    0.38185601636317
O          -1.21130955611587   -0.32426446954000   -0.78103208470491
O          -0.37263775831635    1.66578578393988    0.28423211253494
O          -1.11371608414402   -0.21148448892854    1.61966115212669
O          -2.72909590011439    1.16519959461023    0.41353553747615
H          -3.29349290790754    0.40548216682469    0.65527232741166
H           0.38475939984969   -0.79473033130120    1.73865606715343
O           1.30776676869144   -1.15524792434712    1.74582599113149
H           1.41620036567730   -1.59196485941141    2.59222451414568
O           0.92087276353809   -1.90994369292309   -0.88383567135610
H           0.03390646104142   -1.49062381354775   -0.90740775764209
H           1.17339674496257   -1.89223678681181    0.05377227870340
O          -0.15919560259424    1.47147403214386   -2.39188202536511
H          -0.19703781419152    2.08385330422605   -1.64289418793266
H          -0.69704190222958    0.72140928608915   -2.06474657158357
O           2.22346847360786    1.20106541133267    0.65322576916666
H           2.14208904425185    0.38827604010472    1.17986688585577
H           1.30897256532218    1.55227997306192    0.61574527879631
O          -3.58818231861264   -1.08008416288506    1.51777102739404
H          -4.01513044704870   -0.98822727825511    2.37260856950320
H          -2.62582358209062   -1.00362343025778    1.67575688452524
N           2.11028900770083    0.24797333423882   -1.79343158882900
H           2.90509858317458    0.22440719120654   -2.42102959601723
H           1.29062414774975    0.78641536542129   -2.19955606262032
H           1.74251964508990   -0.72446522485885   -1.55810688844206
H           2.33702241599650    0.70052839010826   -0.85608798779198
