    26
        -50.47603918  Gyration_radius:  2.46423822594 Dipole_moment: 2.623
 S           0.06716660729365   -1.12144248848662   -0.99254684670857
O          -1.27977327225249   -1.25146492670520   -0.46378431337835
O           1.07484148433565   -1.63650839180525   -0.06909749495930
O           0.36294184447636    0.26145118546814   -1.35852341176444
O           0.11940970391567   -1.97916235496526   -2.29179556925229
H           1.07498521847479   -2.02137831452501   -2.49718913378396
H           0.85490333922180    1.32418384005898   -0.23214824872425
O           1.09092712032716    1.95713314841785    0.49070573674698
H           1.73996578095625    2.55362570894324    0.11463232034881
O          -2.10036799730065    1.28143549643722   -1.42026295017859
H          -2.57383593692383    0.45093930259625   -1.31998244191262
H          -1.17215717868804    1.00868433994516   -1.55597016488505
O          -1.60958717815849    2.33437040070032    0.98874938198133
H          -1.92286405236493    2.12178611422455    0.07923550124095
H          -0.65127584112511    2.47038414798257    0.89488489549383
O           1.15948201835187   -0.21734794153131    2.18586334832134
H           1.25940986516821   -0.84750609958845    1.44218875997732
H           1.35532455724766    0.65231107884990    1.79874902234723
O           2.74600356324073   -2.06294888574350   -2.03859888176135
H           2.36432647820997   -1.87514058282302   -1.15683706269664
H           3.15703616660499   -2.92855360130289   -1.98071418309628
N          -1.44877399757981   -0.10569602194976    1.90454643588348
H          -1.49672581889090   -0.65352374148626    1.00613855192444
H          -0.43819301101828   -0.18178745609525    2.22916149054415
H          -1.62874133565604    0.92231654726135    1.64946807028288
H          -2.10442812786644   -0.45616050388006    2.59312719800886
