    26
        -50.47328327  Gyration_radius:  2.39663680492 Dipole_moment: 4.196
 S           0.34154749979980   -1.07797115056043    1.28555121173910
O          -0.94837073554190   -1.53981936977063    1.76180836536918
O           0.45069286803958    0.37841744021496    1.38997777527483
O           0.58913013334571   -1.50912885151634   -0.09363354288169
O           1.44626218946565   -1.69852674452863    2.17927272219079
H           2.27105681814509   -1.50607278513261    1.67272731630579
H          -0.43693344873097   -1.17604259424033   -1.24555542824689
O          -1.12690866019161   -0.93276286385817   -1.92277450081304
H          -1.05641881777493   -1.58782456180367   -2.61871409214489
O          -0.18341498916542    1.74028841303969   -1.77775711952807
H          -0.47355434514824    0.84960480214321   -2.02072814651109
H           0.72289449414410    1.64614776893889   -1.43754312192174
O          -1.49920193472629    1.98724586653679    0.52156652817448
H          -0.78440885671972    1.57155826491128    1.04337524052803
H          -1.09701814547436    2.10835226163073   -0.37313503438568
O           3.18016591113699   -1.07062040607710    0.31332005697366
H           3.17978884696171   -0.12278862313982    0.10504531949592
H           2.42961035396952   -1.42265425006600   -0.19134461631615
O           2.14530758554228    1.45646993809082   -0.25227978390554
H           2.39820973016285    2.30706307718995    0.11113217913713
H           1.50831086192446    1.05913679111081    0.39422300040193
N          -2.65193717444645   -0.30177766898518    0.22603932791971
H          -2.07251191978005   -0.86598430733306    0.91862720370173
H          -2.35634170824669   -0.59638828763961   -0.72222572653382
H          -3.64685770855236   -0.42644356913723    0.37564970944486
H          -2.32909883813252    0.73052141005968    0.35737516654982
