    26
        -50.47530408  Gyration_radius:  2.4231440145 Dipole_moment: 2.969
 S          -1.54002904393057   -0.54485438231537   -0.56712214356623
O          -2.38417107301186    0.61332321378736   -0.62991705564421
O          -1.18663942494080   -0.90565167753089    0.81990429284609
O          -0.32364145299211   -0.39659243387991   -1.36290036066092
O          -2.32138150189022   -1.76811257314240   -1.15032947705527
H          -1.72360940971816   -2.51333869800515   -0.97638833903179
H           0.47644866679491    1.01871704927730   -1.50942830948822
O           0.98488021618942    1.86575101117573   -1.51704367121644
H           1.24389681510405    2.00884654936859   -2.42841009114145
O          -1.04098903297101    2.79649233431816    0.11396415024181
H          -1.69721214105910    2.13481640127011   -0.18974001862161
H          -0.34168671860648    2.78475129804152   -0.56034217601198
O           1.82899446455933   -1.59163921094967   -0.34324628785437
H           1.06946044987006   -1.19517853637631   -0.81449698554373
H           1.52133405034180   -2.45972447638311   -0.06982480057102
O           2.41951350097994    0.84968784368071    0.63009608686351
H           2.17130042695092    1.33693039267535   -0.17429188598254
H           2.40035675451560   -0.09257241752362    0.36591517562065
O          -0.50828881700241   -3.31256786145865    0.14817039941605
H          -0.89704896253395   -3.98231724947724    0.71416573793656
H          -0.66781325577264   -2.44517819072028    0.58454025260147
N           0.10659950368502    1.16484621058785    1.81805733881838
H          -0.42243852429105    0.29595784591781    1.55282593264220
H           1.11116476941938    1.05348231096737    1.45942288931973
H          -0.35329351772567    1.95592074432876    1.26855871309746
H           0.07429324803613    1.32820452235217    2.81786062298572
