    26
        -50.47196978  Gyration_radius:  2.42889322272 Dipole_moment: 5.394
 S          -1.20873551434081   -0.59080898569414    0.47170540946846
O          -2.17500043522897    0.01362211023132   -0.40664959564837
O          -0.73006525699233    0.33654158639577    1.50797594245111
O          -0.04316160339535   -1.07550149208024   -0.30001229730387
O          -1.84875341472803   -1.80558952592302    1.16551730713067
H          -1.31547800037076   -1.93211107385019    2.00495820839472
H           1.38018096325046   -0.17977087507610   -0.58571223056270
O           2.06585383432583    0.47319715804782   -0.84429035899170
H           2.06131041686828    0.45536466611816   -1.80589469710768
O          -0.09189869223207   -0.13863189312997   -2.81472358543666
H          -0.66487381021510   -0.64676627049370   -3.39088199556408
H          -0.16664035011371   -0.55698660847474   -1.93165803804413
O          -1.36509171572256    2.06178494824428   -1.85840548187476
H          -1.92546897056001    1.43101120101975   -1.35765395208818
H          -0.87007842137563    1.47388782856303   -2.46116233377407
O          -0.24854508608492   -1.71150126214614    3.16776739077277
H          -0.27097827881958   -0.76452469657438    2.95928631803833
H           0.56594574232213   -2.05460937336092    2.75265742777343
O           1.70491204347266   -2.21450320923354    1.36897671326885
H           2.51776114392226   -1.74174056230460    1.17985089769348
H           1.05854466213036   -1.92887715311160    0.69382246917096
N           0.32887394426901    2.25592511969376    0.10831210992430
H          -0.12711737652552    1.57659751394809    0.78910008721590
H          -0.35889762361791    2.35274248849241   -0.71510830894321
H           0.54040525530554    3.14465792462349    0.54793452087086
H           1.18699653447245    1.76659040600496   -0.24571191679876
