    26
        -50.47113006  Gyration_radius:  2.40449464194 Dipole_moment: 2.760
 S          -1.33233112673702   -1.04148400309804   -0.57729093747550
O          -2.06927745555977    0.12615627499668   -0.13765330766527
O          -0.80458316594749   -1.82656593088818    0.52519855795328
O          -0.29539446325491   -0.71370942375755   -1.54587327437078
O          -2.36704960529666   -1.95200904179357   -1.34556057187767
H          -1.80054451337440   -2.58714670433240   -1.77169366449561
H           1.14948805128119   -0.28177491561665   -0.78469471559505
O           1.93578043714732   -0.08672590772031   -0.23347785016246
H           2.41015207787606   -0.92903466226111   -0.23046238247434
O           0.74116664160230   -0.38513332956683    2.18377204556596
H           0.12243346471490   -1.03675342303778    1.80243116159755
H           1.40380548786253   -0.25762326031881    1.47269287080935
O          -0.87990264330080    1.81223456380828   -2.10679798286394
H          -0.62043937479305    0.87096077410373   -2.07588628832150
H          -1.75564247275908    1.83135012319825   -1.71225149673656
O           1.00302297416318    2.57839637939255   -0.36207405791862
H           0.40585632395032    2.46261405442311   -1.13553188568803
H           1.62145823420311    1.83442104941642   -0.39852255976565
O           1.69110633423860   -2.82460216747977    0.14249899040025
H           0.76504398391086   -2.52967674096916    0.22233629273117
H           1.85556254090568   -3.38761874936046    0.90063441661034
N          -0.65365633467037    1.69283209694779    1.45649302967971
H           0.02125146062521    2.19206331356166    0.78691535519686
H          -1.34113706122397    1.15953960240549    0.86873495712930
H          -0.08928142234042    0.94474816683278    1.96678731680963
H          -1.11688838322450    2.33454188111429    2.08927598092645
