    26
        -50.46468280  Gyration_radius:  2.69193428219 Dipole_moment: 2.597
 S          -1.19909100071802   -1.51908336664261   -1.41128107621838
O          -2.15251082195987   -0.49170379206696   -1.01892036162476
O          -0.71867136890290   -2.29389262386161   -0.27661917923341
O          -0.11491188005292   -0.98802940239349   -2.21558679149328
O          -1.99575092733123   -2.54175205764410   -2.32407814338010
H          -2.37858111440744   -1.96755602904225   -2.97967850963916
H           0.95271194093931   -0.05274847447862   -1.38330115488829
O           1.48225486004046    0.34656328032957   -0.65093265093034
H           1.88213148855263   -0.42968718125230   -0.21065813926047
O           1.53091129243359    3.08576587591151   -0.33103869657606
H           1.57380578256081    2.14698027200938   -0.58395870204576
H           2.40608161256222    3.32115974762752   -0.01953047890685
O          -0.69316069334856    3.35472458410329    1.19536415703736
H          -1.31874142540615    3.91403466914541    0.73275855478402
H           0.13547883318270    3.37922524476579    0.67216465936992
O           1.83251296653826   -2.10916437447726    0.39182463612923
H           2.35518970456453   -2.74111667782384   -0.10352810594070
H           0.89987838138652   -2.25285645766622    0.10792777932022
O          -0.50544194507633   -1.58172325189046    2.32100470150360
H           0.42459989629167   -1.80938474211132    2.41107956907699
H          -0.78758649583094   -2.01172761516785    1.49201169803778
N          -0.73382139165443    0.66470061794747    0.85879765130349
H          -1.44629275067558    0.32127156245586    0.16409739324456
H          -0.90895007788571    1.64532740832448    1.15474366877930
H          -0.70953285886525   -0.01584339908585    1.64821242511365
H           0.18748800302816    0.62651621299797    0.35912510643982
