    26
        -50.46503947  Gyration_radius:  2.50145608875 Dipole_moment: 3.019
 S          -1.09123447932028   -1.68573136009789    0.33901861506343
O          -2.13666806873446   -0.77096512091190    0.75900073460296
O           0.10480926417096   -1.54496081257523    1.15689939453650
O          -0.79826588031960   -1.60581281014612   -1.08202512949058
O          -1.64042630207741   -3.15486123514862    0.55804020824143
H          -1.32802094214944   -3.57121985037010   -0.23800850891790
H          -0.15828219714856   -0.28129199414074   -1.68651434165424
O           0.22191258263823    0.54679569894455   -2.08551229772647
H           0.48975312135529    0.30628127705694   -2.97421866630288
O           2.42923217622200    0.79310117244447   -0.41631261857538
H           1.70705784899600    0.88091692697457   -1.05843021751013
H           2.61679028664487   -0.16524376629138   -0.39227786800480
O          -1.50244752341056    2.44780092864438   -1.30975350708672
H          -2.33541849516570    2.11180129421196   -1.64652144485283
H          -0.80873763146173    1.85446691055379   -1.66908961143734
O           1.10632874172348    0.85779365248051    1.86748822565208
H           1.70400860248644    0.97569904995089    1.08457262314119
H           0.83382936563925   -0.07785551738892    1.81828297765716
O           2.40716550348498   -1.92033186214955   -0.10946834332545
H           1.51945015411606   -1.84459761351929    0.30088675858116
H           2.98509250612920   -2.26298078043130    0.57468001705997
N          -1.27690707490451    1.65030384697653    1.25242807361615
H          -1.33117349929963    2.12887101134671    0.32364368651157
H          -1.70261531062172    0.68817457770643    1.12862222841099
H          -0.24665791068452    1.46886432807595    1.53752352612379
H          -1.76857481829044    2.17498204781612    1.96704547569385
