    26
        -50.45733322  Gyration_radius:  2.60105925703 Dipole_moment: 4.800
 S          -0.50538233703004   -1.88342168693167    1.20053341419936
O           0.23780529166348   -1.82732986978893   -0.05026205358952
O          -1.87909135724087   -1.42221217324176    1.01694478826564
O           0.15633112438323   -1.21549343656052    2.29885310079661
O          -0.58562277162137   -3.41998370521603    1.58477726854080
H          -0.80356666883723   -3.39851195837157    2.51170933728648
H           1.89003422864317   -1.04539110575756   -0.27512352819566
O           0.95202867254866    1.05302517330544    1.21679274939416
H           0.74653342886284    0.29356880982151    1.80472998192064
O           1.67033556572154    0.46422977322954   -2.91403967292841
H           1.50685655930845    1.39676386186617   -3.06045060347829
H           0.80416545576428    0.03853553470077   -2.77980376232027
O          -0.93262771731193    3.18453855696053    1.39368185320919
H          -0.98989973275795    3.77181184345261    2.14788923739375
H          -0.11896715704955    2.67159533301909    1.50719767117708
O           2.50743959086012   -0.30559787286763   -0.39536556660128
H           1.68157884597780    0.70329188031357    0.64129166788943
H           2.41997255480606   -0.04324760222169   -1.32863588438549
O          -0.71761677322539   -0.69994387734352   -2.19882862156028
H          -0.35254131631322   -1.18648356540362   -1.41361986275221
H          -1.13177215346974   -1.36739443352870   -2.74735717090553
N          -1.33613660760204    0.86813023344356   -0.05342847940187
H          -0.34886433944859    0.97981099791489    0.35536469220939
H          -1.73416339302472    0.00555790392624    0.42625120535200
H          -1.84589090093325    1.72352032891447    0.16844296817722
H          -1.29093809267460    0.66063109637165   -1.05754474967466
