    26
        -50.45892131  Gyration_radius:  2.52557575457 Dipole_moment: 3.086
 S          -1.15340181692313    1.63993615584997    1.22583965896736
O          -1.19817341699330    1.83301032407321   -0.19735007320684
O           0.21263895791200    1.59292603322208    1.74843652883201
O          -1.93078312224700    0.49369566489004    1.67888346247008
O          -1.83240468546567    2.90958887657747    1.90184745874525
H          -1.90184407985383    2.63496046578866    2.81085417385383
H          -1.82537513277918   -0.45525207135630    0.45969669051315
O          -1.73699110399430   -1.06209477240741   -0.33227002682184
H          -2.57434211269096   -1.52384408654380   -0.39804762703928
O           1.37238442113435   -1.82351655029581   -2.62545437320706
H           1.28692374481909   -2.01569318804031   -1.67436007429454
H           2.30057715664991   -1.63453555073195   -2.77410085445125
O           1.58681120406241    0.88471635273385   -0.40105327439033
H           1.14225548598474    1.32136415639543    0.35604476819054
H           1.60155131553536   -0.06302225978333   -0.16497255091130
O           1.15211951232597   -0.74790237214233    2.56364585962080
H           1.98172847757471   -0.50482111576147    2.97783134869950
H           0.70785209773534    0.10070857170550    2.34094768151726
O           0.91687029762263   -1.74666445038832    0.09049450912743
H          -0.04662109228982   -1.67240606911829   -0.01113521276188
H           1.06771389024679   -1.59926381625582    1.04735217593205
N          -0.23878642883944    0.28992168672409   -2.16547520667211
H           0.26129082191659   -0.49016035694973   -2.63882341545634
H           0.46247327041855    0.74854713720084   -1.48823346957747
H          -0.63372837393818    0.98439626411114   -2.78829195555986
H          -0.98073926792867   -0.09459500950164   -1.54230621212069
