    26
        -50.46906828  Gyration_radius:  2.49442532334 Dipole_moment: 3.412
 S          -0.81872268289902   -0.99860643499321   -0.53328410913683
O          -1.95147519853664   -0.60765869205768   -1.33410292722712
O          -0.88352501415974   -0.38908721367224    0.81426234027100
O           0.45611407408139   -0.64295526425494   -1.15851222571408
O          -0.85838402780747   -2.52929128590311   -0.34864658081772
H          -0.01396585231383   -2.76690655824344    0.12466446304568
H           0.74175916624372    1.00597373377932   -1.51192353891805
O           0.98605918819944    1.94327235173312   -1.33924969644380
H           1.83580718126289    1.87883450320167   -0.88796002343148
O           1.26164112146873   -0.83142682655700    2.32440964542432
H           1.90295533187107   -0.35553807237878    1.76637896089695
H           0.39090718058396   -0.62540686316337    1.92790787034480
O          -3.12620667456706    1.72042445503732   -1.38779395173207
H          -3.09438876505946    1.98515971035945   -2.30910164953823
H          -2.83318440801196    0.77572750017870   -1.37604906358018
O           1.26258089096184   -3.10255431551491    1.03028846108393
H           1.34329069746427   -2.29658434854646    1.61434935960006
H           1.04388452432172   -3.83486270450919    1.60959002128321
O           2.64295776969176    0.05723736751661    0.14228049559123
H           3.35414143207762   -0.55522178357546   -0.05207462817291
H           1.85750584124344   -0.28935619007702   -0.34243673848504
N          -1.10106841060877    2.12642908173916    0.26599082293240
H          -0.24148577803635    2.25650009495270   -0.33810268197175
H          -1.95675165456329    2.17016002342955   -0.34902418916938
H          -1.05392513341564    1.11586659753071    0.61660428708524
H          -1.14652080946504    2.78987114398313    1.03153526680310
