    26
        -50.44348907  Gyration_radius:  2.45872375713 Dipole_moment: 6.891
 S           0.57117754573485   -1.52902238120232   -1.05041243452083
O           0.89446065124372   -1.67917009874295    0.36713220258962
O           1.26057031122475   -0.44053692783331   -1.67237610443310
O          -0.88601527732699   -1.48929227046638   -1.23226170080477
O           1.02442994116166   -2.85999428866152   -1.76673556608426
H           0.29913423588649   -3.44740101095989   -1.58347236457428
H          -1.78622668553677   -1.03254445580631   -0.23791502608249
O          -1.36469445615065    1.61971942227988    0.78107326268515
H          -1.66482938354510    2.26827162613948    1.41808250680500
O          -0.49258507809865    1.70879808734057   -1.99449827167687
H          -0.97110965583576    1.74717728208847   -1.15885936503513
H          -0.04478540172370    0.84991938625209   -2.01654803572530
O          -2.31411243311515   -0.68476931256825    0.61366640439265
H          -1.87787393328292   -1.20851110077526    1.37105125945559
H          -2.00583650112381    0.31311782811525    0.70643055175448
O           2.12936703222460    2.22078459423820   -1.27347387743763
H           2.31361640535012    1.33220935262665   -1.60089587511850
H           1.25802940090741    2.42454105617250   -1.65440873531161
O          -0.85386313091708   -1.99566448824658    2.23763784368117
H          -0.47404164869754   -1.63148716608715    3.03898817192735
H          -0.12968451444691   -1.99108030932827    1.55683926290637
N           1.09392846699024    1.08571803058012    1.07988084741678
H          -0.32674985301693    1.44267326997365    0.95104984363656
H           1.56511182570555    1.60939811607255    0.32879002272735
H           1.58747278571687    1.26870801201434    1.94401638677742
H           1.19510934067056    0.09843773678301    0.84721879004796
