    26
        -50.46682947  Gyration_radius:  2.49396120273 Dipole_moment: 3.713
 S           0.31279295784225   -2.08217135857838   -0.22743453566229
O          -0.73020779377499   -1.81213965060251    0.73944411992929
O           1.47782161865342   -1.21889700435332   -0.01131362152462
O          -0.11962870332236   -2.06516465868878   -1.60541224563286
O           0.81191623274878   -3.56108280040885    0.05947295620452
H           1.22693107058396   -3.78108065651405   -0.76805794983468
H          -1.71242427888693   -1.54056858670518   -1.57888546474158
O          -1.75769237646904    1.27964147031168   -0.83175451246865
H          -2.31955768224669    1.88257800357249   -1.32055083753299
O          -2.54907572476398   -1.18010686784346   -1.21312786782690
H          -2.56980386453029   -1.54203834766798   -0.32011242665949
H          -2.10928413988514    0.36338277933115   -1.02136024852276
O           2.00113123844303    2.70343721910834    0.08289933875916
H           1.70427779120890    2.10875121525997   -0.65764113904436
H           1.47940796989972    3.50351301309864    0.00563273890867
O           0.90226838854420    0.97401043681477   -1.55668737500188
H           1.13825501051871    0.09373394722108   -1.22286406947714
H          -0.05261309396991    1.07494645074365   -1.39825701609822
O          -1.23508777138320    0.58481362783658    1.77160757268333
H          -1.51280063728069    1.02007513319354    0.94623856818416
H          -1.18231331639467   -0.36498961806208    1.53448160288883
N           1.37668148409504    0.72178857433478    1.74727458335940
H           0.32078261501588    0.77868133557449    1.90190310611236
H           1.70345839850953    1.57685637028648    1.22787328795161
H           1.88384785789966    0.59115342283002    2.61467624261768
H           1.51091673901980   -0.10912345005904    1.10195517240556
