    26
        -50.46819305  Gyration_radius:  2.49117567192 Dipole_moment: 4.226
 S          -0.35818419388976   -0.91613585725188    1.26187884843024
O          -0.34409874828684   -2.00762733657559    0.30601534918209
O          -1.40230842644955    0.05659897830825    1.00452324779345
O           0.96109131390384   -0.26325954331843    1.31633029819350
O          -0.62777772048726   -1.49740838291696    2.68580454323547
H           0.08576480796548   -2.16015227590563    2.77851716414078
H           1.51468031181502    0.34470907305945   -0.08973748047081
O           1.72177508950183    0.82024354104319   -0.93265309739553
H           2.45402688931698    1.40499751305876   -0.72710457963996
O           0.38042935129321    2.38438672723832    1.57714629880256
H           0.63785236619239    1.44571085506707    1.57826628398270
H          -0.19300116112879    2.48857929638725    2.33737922246954
O          -1.94457276552054    0.49538932864496   -2.89002016684566
H          -1.22530002192837   -0.17932141018201   -2.79043158237162
H          -2.75953815831219    0.03836925143814   -2.67491226262155
O           0.02265467732867   -1.12309982170548   -2.19651765973196
H          -0.17066594881622   -1.54636291824532   -1.33565192330251
H           0.81869196560073   -0.59877488314706   -2.05582786606665
O           1.50664896752390   -2.89756762017671    2.02774934096935
H           1.98825194470375   -2.07036711078408    1.91514288615674
H           0.97849483852063   -2.99078743905697    1.21875935931177
N          -0.81832266603017    1.78549881582818   -0.87670295032393
H          -1.11667983627147    1.16500147124078   -0.06818878794883
H          -1.35053407854617    1.47076046125073   -1.73205236479571
H          -0.95869539853597    2.75930455152503   -0.62779093806397
H           0.19931661055248    1.59131473525758   -1.00992117307945
