    26
        -50.46843540  Gyration_radius:  2.46826389061 Dipole_moment: 1.099
 S          -1.18194276156080    0.35035232094867    0.40928409506094
O          -0.27608926433167    1.25466521974920    1.09201547578012
O          -0.60185231667494   -0.98237317774605    0.28116121510053
O          -1.60831637747567    0.85749398533971   -0.89337258780983
O          -2.44958420800911    0.23500525612984    1.31251389405676
H          -3.09170892292288   -0.23293847229210    0.74272739795551
H          -0.28560754270207    0.81443487928491   -1.87174444773441
O           0.54240543986348    0.80568626250322   -2.40633006967230
H           0.35978258788911    1.32524488693141   -3.19124786040716
O           1.07474399944012    0.11793012831865    3.12443089644995
H           0.53379347624045    0.57828212147069    2.45171021977486
H           0.80188770110469    0.46994179199940    3.97209218931346
O           2.05535274496655    1.47669897333297   -0.24367040859958
H           1.26568297015996    1.68731457559172    0.28843472468346
H           1.71116844733679    1.32244030800539   -1.14245270128917
O          -3.78944337021248   -0.59969691206501   -0.80372229752252
H          -3.01054392810886   -0.09894902355140   -1.11905597078853
H          -4.56394673427058   -0.09446713050588   -1.06148883044370
O           1.24598630891522   -1.86528717413943   -1.67554771545059
H           0.41738109803155   -1.90782027858146   -1.18320400474431
H           1.19092442326490   -1.03675346986803   -2.16766379144499
N           1.96708062777991   -0.91968003719456    0.82926828320261
H           2.20947599829339    0.01774401888833    0.37960130424656
H           0.92674954082262   -1.03671006943426    0.64944225502603
H           2.46517652756920   -1.68588626493207    0.38266015460321
H           2.09144354455746   -0.85267271820568    1.84415859062925
