    26
        -50.46928892  Gyration_radius:  2.43210510198 Dipole_moment: 3.564
 S          -0.28831611032918   -0.56998991575155   -1.96327222522462
O           0.64657724981171    0.42680018118649   -2.43140808381689
O          -1.64685531318000   -0.07434837845689   -1.83075236887006
O           0.15198472099788   -1.23325254192627   -0.73625205412652
O          -0.31267567103312   -1.72190854527604   -3.05342086575211
H          -0.34946403721758   -1.25360907907753   -3.88163489321693
H          -1.20436810655532   -1.10940481477895    0.21561939072209
O          -1.95935593882616   -0.86821777322880    0.79884357751700
H          -2.65522555943458   -0.64629032600037    0.17293498216832
O          -0.71307476124842    2.22106398850669   -0.97271226270488
H           0.08902913980954    2.03183759403905   -1.48068947391892
H          -1.32084835511286    1.53044360529321   -1.30800766511330
O           0.60564960537990   -2.04722761110751    1.91191800619779
H           0.64921611023203   -1.99574887261270    0.94688880623656
H          -0.32855502619765   -2.12102729112239    2.12305718920739
O           1.66396079669244    0.42548240910492    2.19730139055646
H           1.42822621961895   -0.51835389301040    2.31202556457336
H           2.15985957848958    0.44157295203774    1.35385540901719
O           2.45515413684772    0.12851136858479   -0.34804211280293
H           1.70222566751070   -0.46263685436433   -0.52305936574884
H           2.51860162033539    0.66519833760194   -1.14181564522173
N          -0.66751218890805    1.36790204031236    1.54489450133428
H           0.32149803131851    1.04451297822239    1.85455261060094
H          -0.61040381144215    1.83429817411093    0.59813787415045
H          -1.26004035403167    0.51054280133805    1.41058855753737
H          -1.07528765353173    1.99384946638140    2.23044917669778
