    26
        -50.46578663  Gyration_radius:  2.39305322602 Dipole_moment: 8.546
 S           0.68081290430482   -1.43479046720456    0.38330123291202
O          -0.40082660484964   -2.22847152028446    0.96385833073956
O           0.94037406875301   -0.26018631451756    1.21897860332515
O           0.35261167833467   -1.04418248917671   -0.98813053992956
O           1.95437346785691   -2.29336808305277    0.34095119676232
H           2.52593986275589   -1.81317639328830   -0.33930497225974
H          -0.97514098856794   -0.35184314445949   -1.40848778271720
O          -1.86551916554965    0.06975963848251   -1.58985057070824
H          -2.13708260485441   -0.24927121544103   -2.45180686387302
O          -0.91784947796812    1.37561325739464    1.89618169220954
H          -0.15122180570617    0.78061506453350    1.65825356109768
H          -0.70403253562499    1.74611127856325    2.75393957158699
O          -0.25960172269009    2.35306068661421   -0.75821951581160
H          -0.50570363914175    2.26864190706240    0.17118170564821
H          -0.80965400451823    1.71755664519076   -1.23040100767458
O           2.35866298208574    1.42308052334856   -0.31056585550655
H           1.60785513970687    1.90863871632422   -0.69037458941671
H           1.95547519218985    0.87373306715720    0.38476652437466
O           3.00256495115598   -0.86103715114561   -1.50293347384512
H           2.99197086602917    0.05061288745617   -1.12089510003326
H           2.15634722610575   -0.92878804144702   -1.96253562739929
N          -2.39943403337657   -0.62244971596130    0.92836587916312
H          -2.45075544584664   -0.35495964599354   -0.08239529038928
H          -3.28809609981644   -0.95218151167923    1.28897922837162
H          -1.62217158303041   -1.38119569396892    0.99613328496945
H          -2.03989861771622    0.20847772552455    1.45101041839145
