    26
        -50.44571765  Gyration_radius:  2.51389053054 Dipole_moment: 3.170
 S          -1.82659578378576   -1.04142282112350   -1.05409644901993
O          -1.57151913575702    0.37677558831479   -1.17131143845364
O          -1.85498738931455   -1.54637060286754    0.27700175926987
O          -0.89302681790022   -1.81029121752014   -1.95323222123832
O          -3.22777112133725   -1.32010830012957   -1.71110925769406
H          -3.15352363868169   -0.94634912055533   -2.58462287370859
H           0.18920052040237   -1.48904260997557   -1.86233805154779
O           1.57417645742374    1.82922865962222    0.84750450542146
H           1.96636583106909    2.46925285125468    1.44185709991480
O           0.83376558821530    1.48831684829095   -1.79263366812196
H           1.17722288423498    1.78967653384223   -0.93440818946319
H          -0.10826729602386    1.29668871870116   -1.64485228836579
O           1.40919299274678   -1.02876304754909   -1.73006232166991
H           1.65712568961458   -1.10469820172263   -0.77893221350272
H           1.29907323245178   -0.03970410286382   -1.89325842875106
O           2.07091095098131   -0.78966293229655    0.84825702761627
H           1.93836805016702    0.18897962974049    0.88397020626430
H           2.97666429661728   -0.95930965586628    1.11187533449354
O          -0.24182515199284   -1.24136274548811    2.50335945656343
H           0.59632945790417   -1.27960118505983    2.02474824577483
H          -0.90695255037250   -1.55033640902005    1.87208065121080
N          -0.88043949978703    1.36927410289479    1.49903889797041
H          -1.51396049953126    2.01314098132843    1.95409162344913
H          -0.79347285955011    0.53612463560838    2.08606554591777
H          -1.30820243443784    1.06558520722281    0.62733727305892
H           0.59214823663611    1.72397919524034    1.13366976459045
