    26
        -50.47163770  Gyration_radius:  2.37105884106 Dipole_moment: 7.013
 S           1.40044657007917    0.60964594364026   -0.18562783514814
O           1.51585844387645    0.86197935339727   -1.61466411467172
O           1.00893685870559   -0.78092685097208    0.06671734897362
O           0.42031628925248    1.51496387854715    0.42358679876008
O           2.76953629151775    0.85458008698609    0.46338924678333
H           2.71324885910838    0.35345819226561    1.33462535146046
H          -1.01739699299741    1.58002027433572   -0.24118508670026
O          -1.90982347950221    1.50089892531544   -0.67925123657394
H          -2.31295092853591    2.36780709304480   -0.61287614279072
O           2.26725138733982   -0.59789017184229    2.51014957157332
H           1.45725460895799   -0.16594420672213    2.87468652214152
H           1.94094010983240   -1.30132295661213    1.93731695610802
O          -0.64779378318361   -2.31609354833053   -1.40263434978911
H           0.17072589544478   -2.03606346342895   -0.95096363828171
H          -1.31603028752149   -2.28540444852495   -0.70101186295722
O          -0.10079868859501    0.55739495117927    2.87208312171433
H           0.06194567917130    1.08490612553709    2.06666940883099
H          -0.79032528150028   -0.07393795839938    2.62654851004610
O          -1.56019392564188   -0.92222628801070    0.86489810121502
H          -0.60720302205683   -0.83700706431674    0.66559039978446
H          -1.97756195473263   -0.13997158568190    0.48627807482442
N          -0.71710447466136    0.03353257593174   -2.59406120750847
H          -0.78178334240624   -0.97512119361493   -2.25539794110120
H           0.26220798169802    0.38256140321980   -2.30891028836116
H          -0.86442320097687    0.11187728402954   -3.59445244627882
H          -1.38527960266713    0.61828364903432   -2.05150328204945
