    26
        -50.47636622  Gyration_radius:  2.42282376126 Dipole_moment: 2.573
 S          -0.72596105124139   -1.30749902565157   -0.55753226707425
O          -1.73119075259880   -0.47650961689325    0.09122212343127
O           0.09892471553161   -2.02286783627873    0.39953678975752
O           0.10584556319581   -0.52135106613143   -1.47421499064845
O          -1.51107550223215   -2.34610426981337   -1.41726530133986
H          -0.79851109376668   -2.88142157141421   -1.81523929787906
H           1.19271278114204    0.42413334553763   -0.72040759813518
O           1.84722439466223    0.99200726597742   -0.24190653411343
H           2.60474981519937    1.07661463565927   -0.82301820322222
O          -1.55540236377426    1.74047921023016   -1.41893720867538
H          -1.84898360766554    0.97563504767711   -0.89171904107392
H          -0.93193639743192    1.35814608348627   -2.04436968699509
O          -0.05306875474443    2.86103740985617    0.49393500029935
H           0.77798235639291    2.42286877441705    0.24383725727273
H          -0.67099880252317    2.66445864396101   -0.24728357756230
O           1.37932491168828   -0.42611944376988    2.09369131138090
H           1.84024667580303    0.10330242678226    1.42307976844645
H           0.97498980978837   -1.16277920770846    1.58719480458315
O           0.97887171871584   -3.05936607902767   -1.95485517553472
H           1.03889496057316   -2.11555376623434   -2.15573587369144
H           1.06724338117709   -3.11373797134637   -0.99363473940727
N          -0.83585937996402    0.97322646263727    2.12062716977973
H          -0.57048956819640    1.86715501067496    1.58874254528483
H          -1.39032449022118    1.15759317882548    2.94844652926488
H          -1.34887276182407    0.37043289823320    1.43277066263170
H           0.06566345231357    0.44621944030542    2.33303551321918
