    26
        -50.46003254  Gyration_radius:  2.41180630544 Dipole_moment: 5.291
 S          -0.78762233574161    0.46797676476430   -1.49892209429786
O          -0.97974023462075   -0.71307148426995   -2.32910787891394
O           0.39716259882548    0.28731157149542   -0.66921934626070
O          -1.96944828281826    0.75731599972898   -0.68628425210139
O          -0.52266759177298    1.69952919734712   -2.42032971146700
H          -0.42083918775784    2.41758861460183   -1.75635795900044
H          -1.78909447139551   -0.06569646588418    0.61962732567829
O          -1.62154611640751   -0.66757592853105    1.40200485097009
H          -2.46364971477151   -0.75527506489388    1.85309107876406
O           2.40285071126449    0.29274641651172    0.95614125369880
H           3.05746306648631    0.91731334179852    0.63888380685260
H           1.62739645344284    0.38068606837252    0.35290613623343
O          -0.65016031355431    3.04586025926383   -0.14082631109151
H          -0.21268648547790    2.68882050958188    0.65787396011197
H          -1.49382995748272    2.57535144892191   -0.16189447438673
O           0.11994079911177    1.59141028291661    2.08955238945264
H          -0.47106732460728    0.83733902514272    1.96286357564126
H           1.00981692859617    1.22636205960750    2.00398550524749
O           2.20985369026514   -2.14361287530158   -0.23826023910844
H           2.36239200576682   -1.38816577592450    0.36786827198445
H           2.39013105904099   -1.80122524156528   -1.11744138962348
N          -0.44783234316703   -2.36198668311108   -0.37109530937930
H          -0.79663317698196   -3.31339056175265   -0.43231327596494
H           0.60742998170645   -2.33768117892008   -0.26244611689874
H          -0.68274532160154   -1.79598707684373   -1.24927244784830
H          -0.87487445641747   -1.84194320291379    0.42897262175318
