    26
        -50.47395396  Gyration_radius:  2.40833131196 Dipole_moment: 3.047
 S          -0.56575040642629   -1.66305612621806    0.12334681858571
O          -1.04268621704820   -1.89857711407404    1.46757166987548
O           0.85358097022388   -1.28889970800473    0.10652186634826
O          -1.36728533417892   -0.67075158796637   -0.58087261112731
O          -0.68073506950405   -3.01235914323259   -0.66766514095367
H          -0.19606404401750   -2.84583075316867   -1.49100673460376
H          -1.88336237529291    0.87225482192097    0.06690090538879
O          -1.82139588241017    1.70938910876056    0.56900989332543
H          -1.04496831442929    2.16018150391919    0.19013217470587
O           0.61992346759350    2.43477406356217   -0.52175133232990
H           0.84444969689809    3.26093214148104   -0.95166150830664
H           0.49792245603160    1.77043851632746   -1.24837654901273
O           0.08471753470069    0.62980985141544   -2.36912835597915
H           0.66503976266415   -0.06191378762701   -2.70495425416435
H          -0.55856882462260    0.15583893755465   -1.80034762960693
O           1.23513735945002   -1.99989500164136   -2.33551580738364
H           1.27667406207972   -1.65987179389678   -1.40942441108527
H           2.02046630315306   -2.53410383509277   -2.46837719651918
O           1.63526981246928    0.84420885407772    1.49606230949274
H           1.43446364495606    1.53396294511536    0.83979638036047
H           1.53773371581750    0.00420140507624    1.00227096531379
N          -0.71737854509133    0.45788603842865    2.57999349257114
H          -1.29385325091926    1.06633246761179    1.91810233883933
H          -0.89467454542058   -0.54075535489684    2.28528879711428
H           0.30285823876915    0.66606402345881    2.34731334268152
H          -0.94151420542976    0.60973952717610    3.55677058645766
