    26
        -50.46293852  Gyration_radius:  2.57528956413 Dipole_moment: 3.755
 S          -2.03071263449489   -0.91823876827306    0.50117604698888
O          -2.60059853098815   -0.03109582485818   -0.47690405997811
O          -1.05666348638963   -0.23234488885564    1.35913987217993
O          -1.45223787516501   -2.13092932339133   -0.06119883761983
O          -3.19621727114775   -1.40233117875248    1.45708288944360
H          -2.78036566283443   -2.13036172797926    1.90720077029937
H          -0.53932983268383   -1.78739217156867   -1.28324335461707
O           0.07526294224248   -1.57691928809017   -2.04414057515230
H           0.06410695391077   -2.35915732382579   -2.59861666992309
O          -1.07167312239126    0.98655864868114   -2.40375976193003
H          -0.64650861389844    0.14288547034551   -2.61681684130531
H          -1.83314520776572    0.72918804494201   -1.84612992358370
O           1.60104895637009    2.60517070696487    1.81337976037234
H           1.33086052146358    3.05714600695324    2.61289788662135
H           1.70560652628990    1.65837041843579    2.05771047119147
O           1.56150348210225   -0.08695410320155    2.17038656662077
H           0.60660802859801   -0.24349323443274    2.07809589265000
H           1.96372953713950   -0.49474570469309    1.39489204138748
O           2.16871679965558   -0.65715055482633   -0.65922889816796
H           1.45786983236910   -1.11023660297267   -1.16722794970250
H           2.95182176282573   -0.65759687407397   -1.21133533044293
N           0.34598912316255    1.36083048791581   -0.20941223489634
H          -0.16768344054068    1.51226075021639   -1.11480381594339
H           1.16678966153802    0.75352359102136   -0.38674216016381
H           0.66797297925443    2.19856911063507    0.29847277735158
H          -0.29275143352429    0.81444433489451    0.42912544986422
