    26
        -50.44483793  Gyration_radius:  2.51291538892 Dipole_moment: 4.677
 S           0.00007004070127    1.19118394111048   -1.81731132114149
O          -0.28661947696928    1.48021120363062   -0.42659721893475
O          -1.04028775824090    0.45906112693839   -2.49601029755483
O           1.31330883160791    0.54795702346962   -1.97121306089527
O           0.12769338606538    2.58889582681255   -2.54685470328481
H           0.11248861624818    2.31828074978991   -3.45864814723865
H           1.74395459823723   -0.43515598955770   -1.10279591515468
O          -0.04201132608667   -1.97937082198912    0.78660765696264
H          -0.10791736425181   -2.93395722207279    0.82462490770546
O           2.95522186119397    0.17443105102354    1.59777802802659
H           3.33803717423814   -0.27499994941274    2.35266898283887
H           2.03570915205280    0.45432980353136    1.86130255448805
O          -2.55306773019348    1.27360834627772    1.06344153459467
H          -1.85032406062186    1.52866967334438    0.44022186960702
H          -2.15987176561356    1.35767832535794    1.93542616059575
O           2.04884956603454   -1.16990775884683   -0.37840388973618
H           2.53452952418589   -0.64338120760694    0.35152758764566
H           1.17922752015203   -1.53043199281316    0.06640822313915
O           0.39472075409657    0.52661446722664    1.98037345471667
H           0.17241041021025    1.00037283564553    1.15442402807744
H           0.08993309511890   -0.37986983220570    1.83219525590977
N          -2.06836795933304   -1.11687305710476   -0.44550566851247
H          -0.91754478928284   -1.63304428273079    0.25048827272158
H          -2.77747740801294   -1.77606040494861   -0.73972320123036
H          -2.50702369750110   -0.41816404265874    0.15737133404324
H          -1.73564120416103   -0.61007781226438   -1.27179642740336
