    26
        -50.47210202  Gyration_radius:  2.44433965895 Dipole_moment: 5.071
 S          -1.44156070649065   -0.83343478257341   -0.49026099336294
O          -2.03558959723331   -1.79981861020498    0.39633722338269
O          -0.07201508560063   -1.24408968153908   -0.87900957640547
O          -1.37932644778249    0.51063717872419    0.08957839538452
O          -2.28172093276764   -0.76222943701538   -1.78904270939246
H          -2.10748681468212    0.13968610899456   -2.17816174800288
H          -1.41225895849739    0.23939679781645    2.26588770035293
O          -1.30445822963211   -0.65405205193287    2.61247269762468
H          -1.78842576110360   -1.20495114492328    1.95603178197249
O          -1.53058893108197    1.63522984878551   -2.39433994359201
H          -0.59564831275545    1.45437968814472   -2.60401889741572
H          -1.56079862920592    1.78587477393757   -1.43897466146126
O           0.97519949817098    1.77066755004452    0.04483749138508
H           0.09741930772165    1.34555430629498    0.14528631194713
H           1.23187263268157    1.59302201763512   -0.87017291976374
O           0.97191462942681    0.54802496387044   -2.45943069885751
H           0.61718505210371   -0.18818057983828   -1.90002727380015
H           1.41520727468865    0.13569988357230   -3.20194649748521
O           2.65128798086652    0.57354445624703    1.65870543044228
H           2.71241263874586    1.10011374749486    2.45718816421422
H           2.09960382767517    1.10457035134649    1.02152680197949
N           0.96604414698419   -1.46797966336227    1.52287487887144
H           1.73112964018955   -0.74585005097253    1.63209131533720
H           0.63290915180941   -1.46337118243806    0.51588585496672
H           1.28434982395103   -2.39541647539168    1.78332015609974
H           0.12334280182161   -1.17702805272197    2.10336171557855
