    26
        -50.47603925  Gyration_radius:  2.46438749194 Dipole_moment: 2.628
 S          -1.21681116639774   -0.86822892098042   -0.11290362450901
O          -1.30662653888007   -0.25338506651378   -1.43479134022548
O          -1.58696245137232    0.05339805627316    0.94738729249658
O           0.11625531333370   -1.42336571892734    0.10726948681231
O          -2.23734125426332   -2.04376136669970   -0.05672555886500
H          -2.07688531683629   -2.52368414642443   -0.89401331993693
H           1.43648526214550   -0.59310261765665   -0.34839698693700
O           2.21806236012199   -0.03246438517495   -0.58006218214209
H           2.88642481152981   -0.63709385524135   -0.90583403422337
O           0.47239906379951   -0.81808115812597    2.68030089899253
H          -0.42125632207873   -0.50895414346180    2.85268300087395
H           0.41881538940741   -1.20661011062202    1.78554964925808
O           0.43821780510706    1.74198541618461   -1.71666056042246
H          -0.26075756352196    1.05896181993999   -1.78772628221532
H           1.25367978855902    1.24160256058814   -1.54605606024136
O           1.99554740136229    1.22847802689128    1.87779845027604
H           2.34545591561313    0.83628788197668    1.05956393914871
H           1.56572872156572    0.47897596134068    2.35112691705824
O          -1.63009447828849   -2.59130529470236   -2.56679909526203
H          -1.39783080461133   -1.65520700729174   -2.39843698703387
H          -2.34561539612052   -2.58508287095531   -3.20673895985975
N          -0.14534091192373    2.25531128590966    0.79147857473697
H           0.75054170459575    1.98075101333054    1.31729911156970
H          -0.82774998727767    1.46357749256583    0.92145920866198
H          -0.52890062023490    3.13724619424051    1.11072237031878
H           0.08455926465435    2.26375092352555   -0.24749391832616
