    26
        -50.46891522  Gyration_radius:  2.43224091279 Dipole_moment: 1.429
 S          -1.38879611679864   -1.18755711057715    0.25148191936862
O          -0.67423283756993   -1.35374930573859   -1.00758886782884
O          -1.98814745174109    0.12669199054122    0.36948549442581
O          -0.55934194865963   -1.54775912496769    1.38639364707064
O          -2.59161818704747   -2.21262108306892    0.22139759674904
H          -2.15542532345252   -3.05104752050231    0.11155199730316
H           1.04929988722678   -1.40102492525628    1.08938907433356
O           2.01455584868375   -1.25195898375782    0.94882504537497
H           2.46833371117776   -1.80956458809405    1.58242238900075
O          -1.95986559396998    2.30519538917944   -1.19040525639361
H          -2.16027300616877    1.50358428679277   -0.66657676484490
H          -2.06071522254000    3.04343686504373   -0.58639680653769
O          -0.48396637124296    1.12240553412469    2.32102927530052
H          -0.30060720104421    0.31306497941053    2.80587742387881
H          -1.14202961933432    0.85275947118628    1.65211664590092
O           1.65030229149512    1.44283112985251    0.73644884730131
H           2.02678985037885    0.55379734506806    0.86034766651685
H           0.91544112138750    1.49910933727063    1.38822936996907
O           2.01377284879659   -1.22634117557641   -1.90634128285560
H           1.12478294078759   -1.59708927590020   -1.87791904291170
H           2.30936365554361   -1.24321360654273   -0.98686480984254
N           0.38293675784921    1.04088811058183   -1.52328071933396
H           0.99414026657219    1.00381911517000   -2.33537770634526
H          -0.03027992020106    0.08562792934588   -1.37891421670774
H           0.95432946644802    1.27864965430189   -0.64564208939998
H          -0.40874982659146    1.71006556207768   -1.61968882948811
