    26
        -50.46874786  Gyration_radius:  2.44884990101 Dipole_moment: 1.935
 S          -0.82785727202757   -1.42511977438066   -1.20177365337384
O          -1.74887834239939   -0.49013612787686   -0.62075486574891
O          -0.07960277875051   -2.17515677580314   -0.18315011824316
O           0.07465390276745   -0.83564078604288   -2.17878137530178
O          -1.68355906005770   -2.50402043504829   -1.98328500789365
H          -1.02067793181216   -3.04294558660462   -2.40338701815572
H           0.17328412132786    0.71093037062233   -1.69508394142269
O           0.34841948300589    1.63942553868140   -1.40551920314326
H           0.30853674084919    2.17428896651279   -2.20020157745662
O          -2.20468927398471    0.69963820810582    1.73722795146656
H          -2.36255905019352    0.27633453893389    0.87398128728605
H          -1.88451774544402    1.59634398131000    1.50968070135064
O          -0.77840379888476    2.79857258276952    0.82591796490216
H          -0.53995978671721    2.39491951554471   -0.02753697452403
H           0.04927093749832    2.97396536743435    1.27829473816228
O           2.40382309051762   -1.33393273316009   -0.72532332669050
H           1.58809555874072   -1.80344328469370   -0.46649380713923
H           2.21483330875982   -1.03248036637178   -1.61983853091133
O           1.92344874226066    0.86526038522932    0.72195065317513
H           1.45864438019244    1.31890717769725   -0.00004511192590
H           2.33934967324566    0.09093991481094    0.28045428430059
N           0.05621677431659   -0.58485029698255    1.92608851480386
H          -0.88129511133667   -0.05618410714722    1.98449306566161
H          -0.05230635538392   -1.31672308615450    1.17901172741634
H           0.81742713495202    0.06991025859362    1.58202357109427
H           0.30830267855763   -1.00880342597920    2.81205001231087
