    26
        -50.47039483  Gyration_radius:  2.46578979764 Dipole_moment: 6.918
 S          -1.34453206617734   -0.30857549780525   -0.48895955290278
O          -1.74595347949980    0.36705919375530    0.75907289117611
O          -0.80779308091463   -1.62293139625942   -0.24503200806570
O          -0.41718987434836    0.54377733148485   -1.22938589664909
O          -2.62809409740308   -0.47691629305022   -1.35531556889427
H          -3.03817218928099    0.41053202072241   -1.34314255731646
H           0.84108776332318    1.26886829477008   -0.53078509772776
O           1.60348249809569    1.65934960280310   -0.02986599788114
H           1.79912576062738    2.49410071658539   -0.45783762656777
O           1.07565776412359   -1.42335402191786   -2.30604896438134
H           0.55033816252263   -0.62883188742039   -2.10604697581939
H           0.56179355328421   -2.14321708162690   -1.92735033171923
O          -3.44473687893434    1.90237501078372   -0.53109815822386
H          -4.30749538773871    1.89882783906889   -0.11026358745740
H          -2.81208826649628    1.54095417360589    0.12137495923475
O           1.25224974428140   -1.90401771153847    1.44718289662049
H           0.47903993328887   -2.05186644079674    0.86735521675715
H           1.99048984969841   -1.66739795724186    0.82434084423942
O           2.86815108152722   -0.88056028151782   -0.35937239864808
H           2.68596915101650    0.06434777492902   -0.26858836098494
H           2.38944938920822   -1.15544294796948   -1.17064214075909
N           0.49458892143432    0.44545343424826    2.12343367208879
H           1.06891786961966    1.07883687977184    1.54131689753762
H           0.87317037591916   -0.58179081592996    1.97293713869159
H           0.48803390495547    0.72387673692975    3.09809845193236
H          -0.47549038219123    0.44654331362608    1.70462226573110
