    26
        -50.46886251  Gyration_radius:  2.50855010505 Dipole_moment: 1.111
 S          -0.80412756236257   -2.05693320808645    0.23477033452095
O          -1.98295733856651   -1.21096894667765    0.41297032622973
O          -0.04521694404971   -2.24716138474914    1.43833547101309
O           0.01006973060322   -1.56849032448401   -0.88089793009338
O          -1.34704962018355   -3.47397021106410   -0.21027946483229
H          -1.89739449995600   -3.27510242295907   -0.96161436967834
H           1.44183777004921   -0.88192223813592   -0.60053561505106
O           2.30523554617863   -0.43980189723688   -0.39907465057698
H           2.98318245818059   -1.01565214315364   -0.75589586434452
O          -1.69569002205606    0.18073829775845   -1.95155044292371
H          -0.95531442830173   -0.42485746606274   -1.75859780552355
H          -2.36727705612705   -0.07351228854549   -1.30877163790907
O          -0.71705534310340    2.39646438391313   -0.78733330532830
H           0.23542998070662    2.42593331036588   -1.00986916544390
H          -1.10712258344883    1.72920412483359   -1.39431932260323
O           1.95484898768846    2.16324458355109   -1.12682587692193
H           2.10945243100949    1.21705775393386   -0.94256523420515
H           2.54610350821428    2.65477974678458   -0.55516138558993
O           1.32098672317960   -0.08671889669795    2.13770794584449
H           0.90851848245893   -0.97454886052209    2.10630579511953
H           1.90425939983379   -0.07748711394742    1.36118786120725
N          -0.96701757543851    1.02194386652179    1.40800236633526
H          -0.85605647459717    1.67133876632475    0.54866831319654
H          -1.46309660407142    0.15196176986606    1.08582049915460
H          -0.01691974046095    0.71493111874223    1.76809949592863
H          -1.49762924537123    1.47952968979050    2.14142366246227
