    26
        -50.46447562  Gyration_radius:  2.46071784307 Dipole_moment: 8.324
 S          -0.31821832180937   -0.73005179482260    1.31674145750756
O           0.88489926890623   -1.43065287021073    1.74269938192773
O          -0.54424219204228   -0.93040484091597   -0.13674856918162
O          -0.28158301084049    0.68597163621630    1.62670766712235
O          -1.50568924120633   -1.38925477431866    2.04697324939505
H          -2.32258452297150   -1.10033588485573    1.53941416966985
H           0.89636121882747    1.47939160963437    0.65374885065773
O           1.38909469121198    1.83189146735905   -0.11451841403779
H           0.71477458697480    1.93318789359328   -0.80265056301431
O          -0.83339896824800    1.21172226354940   -1.65709795682106
H          -0.95527217589190    0.90818404154693   -2.55726076661090
H          -0.74618027600219    0.40999127107870   -1.09015382926285
O          -3.31071071622595   -0.53455421305239    0.43874807894622
H          -2.79709109943001   -0.81255499933913   -0.32567065391537
H          -3.17060095228435    0.44578296776948    0.51643583554439
O          -2.40308319968041    1.93471125817196    0.57029380820893
H          -1.65125853443459    1.64828812562231    1.12398000332527
H          -2.02247887473126    2.07315071055905   -0.30714752819805
O           3.28789635870111    0.26672192518908   -0.97273665258627
H           2.59024139368287    0.92342436099068   -0.68645317236484
H           4.03887842552973    0.42722788153473   -0.39881126054633
N           1.84529336537229   -1.88487337235431   -0.53971826702555
H           1.66768649105786   -1.84843592763428    0.52407085576911
H           0.88372210787494   -1.63109454580941   -0.84384462224186
H           2.51514878314639   -1.09623826549056   -0.78959583832441
H           2.14839538447811   -2.79119594394011   -0.87740526395957
