    26
        -50.46361073  Gyration_radius:  2.45729300158 Dipole_moment: 5.318
 S          -0.94672951621475   -1.93301150554609   -0.33166895770856
O          -1.49145149059905   -2.45360682382330   -1.54893110394970
O          -1.07515066808823   -2.77627306935430    0.83565603440775
O          -1.88680831183253   -0.63321109512411    0.02260296496419
O           0.37891701624741   -1.34017945934373   -0.45265530979296
H          -0.06568659798202   -0.68454054433162   -1.91493991472771
H          -2.74256019588440   -1.04254154396670    0.10610195798002
O          -0.42021764201557   -0.18511284424424   -2.67755216307956
H          -1.16301454020864   -0.72428910868713   -2.96270472532624
O          -1.11058635430981    1.91792566993586    0.67463999852776
H          -0.68721593659293    2.19817025198003   -0.15667268361149
H          -1.53704587346515    1.07224682809184    0.46099908864877
O           0.23237537672605    2.18320958404515   -1.70946007461757
H           0.30795967712637    2.82547447929564   -2.41615379956183
H          -0.08939743817945    1.34889088703075   -2.12690008391229
O           0.56321604923578   -1.66984092618231    2.49782061295643
H          -0.12256797262703   -2.08166632201798    1.90855955347693
H           1.36138541549407   -2.17157442359802    2.31880011395386
O           2.18354336726329    0.66497358865751   -0.41853695912775
H           1.72734359487511   -0.18499129653104   -0.55380053194212
H           1.67512417447091    1.30130150344349   -0.95071645860554
N           0.99083781364422    0.88682358214128    1.90832409513762
H           0.77467222912114   -0.11610883236569    2.17484020117821
H           0.10388955092730    1.35940599291971    1.57205905442411
H           1.40962047663523    1.38578548692185    2.68480489938708
H           1.62954778625168    0.85273995064909    1.05548419093200
