    26
        -50.46804850  Gyration_radius:  2.45328151624 Dipole_moment: 6.136
 S           0.96717452422033    0.84822421541077   -1.20866384815093
O           1.49981018418716   -0.13077872308867   -2.10751186170101
O           1.30365807486486    0.57474133473095    0.20050730600812
O          -0.49923690788093    0.96902217998986   -1.31923419818936
O           1.55851820371581    2.24059959910644   -1.55585565051109
H           1.34410275672769    2.78955170450974   -0.76460890107502
H          -1.33758306934117   -0.40710285943366   -1.31066456421208
O          -1.82593063220857   -1.23619362961827   -1.06990129815741
H          -2.64071895650344   -1.22989319720108   -1.57374998917803
O           0.95176446051729   -2.89119860159656    1.51161938897521
H           1.85983405741605   -2.68431564003901    1.73978146682064
H           0.92430240455719   -2.89586473009883    0.52087911403762
O          -1.58745531510265    1.97272441320904    0.83263608037991
H          -2.31542559211895    2.53717569323742    0.56832271628374
H          -1.21855000086065    1.59762757002325   -0.00447403721356
O           0.71292655496752   -2.49218787657659   -1.09259393110719
H           1.14970506624834   -1.71474457861868   -1.49244617583230
H          -0.22983364990617   -2.36049442529507   -1.25503784611457
O           0.91511608850539    3.13012725857073    0.83317867180726
H          -0.03396950167345    2.96001659299435    0.97240604102170
H           1.33831850116368    2.28055151952379    1.02757543551268
N          -0.59438261258333   -0.77200011734720    1.33817202723891
H          -0.09191934440987   -1.65108357687753    1.64244710004294
H          -1.05637905123500   -0.26159698593698    2.08408501366347
H           0.16962015915712   -0.16102606747686    0.89668958522984
H          -1.26346640226847   -1.01188108218023    0.58644234440169
