    26
        -50.46525570  Gyration_radius:  2.47405632601 Dipole_moment: 5.245
 S           0.83912788169176   -1.55695898871130    0.40191655911079
O          -0.61434903652242   -1.72532687755330    0.31020228540590
O           1.23331629701825   -1.02555285732843    1.67907013892954
O           1.30984667434346   -0.74112296705224   -0.72727477204058
O           1.48878416737079   -2.97156717948106    0.24331708628038
H           1.16953658050658   -3.28044307218546   -0.62525632829006
H           0.32346227087054    0.43499002104034   -1.23100804445318
O          -0.22795706333856    1.18911185224778   -1.56576697828876
H           0.01105264090884    1.29500926239110   -2.48822071257456
O           0.28110334977677    2.25904573855662    0.96117093289271
H           0.14983677898691    2.19105998552640    0.00390827064061
H           1.21167936241476    1.96012516405479    1.10703274826418
O          -2.79009397965488    1.44607077961611   -0.61992502080917
H          -2.94874991474166    2.39021859971223   -0.67486795215709
H          -1.94743212703580    1.28107547468543   -1.08550813725332
O           2.66051987515525    1.08708470527557    1.00450610244419
H           2.28958516135265    0.30493187979740    1.45976921713176
H           2.75529276835175    0.79327828250786    0.09303774723333
O           0.19523305521073   -2.80250012990532   -2.08053940074356
H           0.68385286233753   -1.96831974139505   -2.01782659985104
H          -0.59639536801236   -2.66251681676012   -1.54561401050291
N          -1.50982410712752    0.41740119894742    1.50868922536375
H          -1.16249940612946   -0.50380141986849    1.10843736410668
H          -2.25750496526291    0.76205400319931    0.86917273374289
H          -1.83141415323088    0.29179247659242    2.46177938076134
H          -0.71600960521598    1.13486062607062    1.44979816467017
