    26
        -50.46146360  Gyration_radius:  2.62282064004 Dipole_moment: 1.518
 S          -1.19418909271641   -2.01747887618553   -0.15159701460722
O          -1.39663690843791   -0.75495312117771    0.54840260408765
O           0.09713152904648   -2.61570000738590    0.15519876438685
O          -1.43443109157918   -1.90229676386677   -1.57379096669092
O          -2.29192569717691   -3.00404535249010    0.43342529936406
H          -2.05728779953918   -3.83863195183182    0.03939767585229
H          -2.75838470126103    1.13816997889305   -1.43301258152740
O           0.18732192617040    0.00766111821530   -2.43405202106847
H          -0.35529536879640   -0.80346225081860   -2.32872291925810
O           3.21521266808671    0.48519921506197    1.82197488905889
H           3.75425926229585    0.50921608308218    2.61306642443925
H           2.31578256511426    0.71240268885686    2.09579860723047
O           0.37895121741074    0.90029759347773    1.75441300392418
H          -0.37222427325468    0.29426568334868    1.62632572986762
H           0.05994783741787    1.77178299972203    1.43998840160209
O          -0.57829107108904    3.06845245221691    0.45788769657408
H          -1.15643971957936    2.52200983186584   -0.10738728396078
H          -0.01076655593438    3.56724553395752   -0.13164684131834
O          -1.87307557861744    1.23511329206167   -1.07956418323831
H          -1.74596294910019    0.46913717571574   -0.46453496285433
H          -0.43187154101691    0.71338451341754   -2.18724435479949
N           1.55892592563446   -0.48686217241631   -0.23188588987961
H           1.20590472656470   -0.20142778924004   -1.18677921080533
H           1.17078187491334    0.15634556435531    0.50442713093953
H           1.13974247723168   -1.43672763485027   -0.03569707922644
H           2.57282034818645   -0.48909783398048   -0.14439090807993
