    26
        -50.46366692  Gyration_radius:  2.41067145822 Dipole_moment: 5.622
 S          -1.10516339060973    0.19358864620188   -0.88728403223966
O           0.00971610999290   -0.76161257120216   -0.71299954295719
O          -0.70031964661986    1.26289679302373   -1.78053633156719
O          -1.54596938625118    0.67889786586350    0.41247618469314
O          -2.26426022761156   -0.57631510985752   -1.55375267726712
H          -2.77501068191456   -0.96104281858880   -0.78220942814839
H          -0.45553835377820    1.72214968376411    1.18360334336048
O           1.25662057393936    2.53493472917983   -0.85930876596345
H           0.42696961316198    2.16864501715182   -1.33513307026157
O           0.40873109548103    2.09828636600267    1.46377930016664
H           0.96925970641503    2.50998578044774    0.14616705352389
H           0.92100730967402    1.31133270811188    1.73803713647901
O          -3.20125313270217   -1.38726385223792    0.69276277650152
H          -2.51366101418193   -2.05005533594129    0.90220226705401
H          -2.84639779487839   -0.54168431740206    1.01026957758082
O           1.36494549543444   -0.42218983483710    1.57906837012437
H           0.85573901815409   -0.57673884167863    0.75672745432771
H           0.98240159710977   -1.01482546404767    2.22923413036875
O          -0.88951579392052   -2.79278277282848    0.72234336550721
H          -0.87443674330117   -3.59885966175567    0.20401196494982
H          -0.51881730251324   -2.08776708390473    0.14768080097543
N           2.57385306625149    0.40391293356733   -1.07294374640349
H           3.21177984043501    0.24256006922675   -1.84058172663193
H           3.01650438145297    0.13492181157397   -0.20184696546409
H           1.94963921045454    1.69099269973825   -0.97143448156261
H           1.74317645036165   -0.18196743960486   -1.19033296710775
