    26
        -50.46737626  Gyration_radius:  2.49707684299 Dipole_moment: 2.674
 S          -0.07000747497320   -1.60317434515969    0.55425339855682
O          -1.03765536360748   -0.63000678556952    1.04631160901843
O           1.21237022393896   -0.97255945903480    0.27131000368626
O          -0.57741489354022   -2.40613287268848   -0.53294336461687
O           0.20403292119131   -2.60769623882279    1.75611012551941
H          -0.25545872040526   -3.41371330939242    1.53801127965353
H           0.14869728956338   -1.65078247710235   -1.92207835836163
O           0.63923736920884   -1.06944043428213   -2.53146811851971
H           1.52991258320650   -1.03729591977105   -2.17567991516699
O          -0.85751570284859    1.19469961115232   -2.54068488624394
H          -1.67043084853833    0.75322775424620   -2.22040845701320
H          -0.28211773251529    0.45347366521421   -2.81391903052212
O           1.08304893833817    0.29895130823425    2.65631877741170
H           1.40207084389293   -0.23550322338602    1.91121286479835
H           0.15473910517698    0.05744431302545    2.73735603525652
O          -2.54973974841513   -0.44834168490219   -1.20403329921025
H          -2.17240867689446   -0.49888420912975   -0.30977706049858
H          -2.39792384112106   -1.32092968582099   -1.57753994857253
O           1.32333692615201    2.85783412671300    1.79333982232778
H           2.12168588103124    3.28703388614156    2.10111385952659
H           1.27626612305375    1.99126729584648    2.25280185770398
N           0.16276219772596    1.44167902957884   -0.16804503990412
H          -0.21057373214768    1.56639356205639   -1.16883381829685
H           0.57420349429164    2.26787378167931    0.29752869135839
H          -0.60010657951439    1.06403768924195    0.41466083800756
H           0.84898944779777    0.66054462195634   -0.16491785588631
