    26
        -50.47723505  Gyration_radius:  2.39954940512 Dipole_moment: 3.766
 S          -1.67330301824720   -0.29239457506550   -0.33633608262164
O          -1.21183827894497    0.88644308665601    0.40962355399623
O          -2.11414328815089   -1.34958107965607    0.53560731302898
O          -0.64762142668400   -0.72894537648685   -1.27730371033678
O          -2.90611786217132    0.17848812340403   -1.18339435707592
H          -2.56791300613683    0.95759071740775   -1.64630373125550
H           0.58849197949966   -1.81840030751467   -0.75407122287391
O           1.32917235548377   -2.17571577284505   -0.22162767463335
H           0.93273235672519   -2.36628330630020    0.64573895325653
O           0.71549558381337    0.53015935521583    2.18334015906086
H           0.52189266879806   -0.39179892092342    2.42141646593439
H          -0.05427715285354    0.79517967116913    1.63574334569733
O          -1.47440973371590    2.49464887168459   -1.56764577991957
H          -1.93188550040667    3.30648125110205   -1.34127468032534
H          -1.30517272855358    2.01818445372176   -0.71808203862004
O          -0.16054277336113   -2.08415003269586    2.08877437309596
H          -0.93830876343893   -1.82233435249539    1.53245215280801
H          -0.48710355357499   -2.75069023289867    2.69563437847941
O           1.01983310676437    1.19908607121550   -1.94859717313710
H           0.41101177541731    0.43243685573349   -1.85745829647055
H           0.43153893917535    1.96208843554346   -1.98833282000569
N           2.34020254957763    0.22038332116593    0.14139299582392
H           1.93107217920727    0.75940575049814   -0.66660048482878
H           2.11359126982632   -0.80633109050706   -0.04543305516507
H           3.33591622624531    0.38311473450261    0.23396577409180
H           1.80168609566914    0.46293434837885    1.02877163198215
