    26
        -50.46451559  Gyration_radius:  2.69741189137 Dipole_moment: 1.951
 S          -0.86141791862533   -2.25036236921373   -0.09126211900349
O          -1.04060632793369   -1.80667753485102    1.28485160333123
O           0.51401823270030   -2.30310878780638   -0.52107879277314
O          -1.68796386236926   -1.45967480824742   -1.00614463710797
O          -1.42687642608655   -3.73045671578165   -0.13490436372721
H          -2.11828316170805   -3.69179759471905    0.51822963475933
H          -0.88578118573563   -0.58474566088578   -2.16937246112777
O          -0.39103114802613    0.01905428364130   -2.77186818528146
H          -0.17280292630625   -0.50737761460424   -3.54212022738396
O          -2.45367268869840    1.10387989724106   -0.74567195368209
H          -2.12913211168070    1.42048893296756   -1.59340043932586
H          -2.41578917276246    0.12932736302227   -0.81344370090175
O           3.00583080442014    1.55946177270554    0.92735652240756
H           2.60057760331379    0.96251488773280    0.27461917965836
H           3.47826298696360    2.22624227716894    0.42683276095581
O           1.07137001478748    2.13119238066259    2.73870274171392
H           1.31639081463498    1.74418540759563    3.58040554225850
H           1.84386484908494    2.01195219052592    2.14742421242219
O           1.48377829610215    0.09956491398891   -0.85421095502625
H           0.98476427835692    0.27421324458693   -1.67830088619433
H           1.33176439430114   -0.86205996787096   -0.70156278064223
N          -0.41619792681629    0.72296284454332    0.96372284630935
H          -1.23907898331694    1.12427677616834    0.46446151942469
H          -0.68246167549223   -0.24632658077575    1.27542626472768
H           0.36345265952099    0.60079055247708    0.27320655938537
H          -0.07297938863603    1.31247989972169    1.74810212483558
