    26
        -50.46730279  Gyration_radius:  2.59696194943 Dipole_moment: 5.524
 S          -1.25685387360275    0.10420018876974   -0.60385038135793
O          -1.21329756006046    0.13580502848787    0.87620462992742
O          -0.87159496389041   -1.19894673103203   -1.09955886808322
O          -0.42635120374892    1.17410921961690   -1.14335562057214
O          -2.72438110866559    0.34014138051695   -1.02647258795515
H          -2.99191136759676    1.23769181630658   -0.69065814276558
H           1.18605933203717    0.85110113668160   -1.06020324147929
O           2.06702351147075    0.46805779285205   -0.82702040728707
H           2.12135347646519   -0.35503940709191   -1.33537933148708
O          -0.89276892543678    2.74997353253311    1.02628380604092
H          -1.00703983459205    1.78909328351407    1.17753393188965
H          -0.43385322165044    2.78398465984743    0.17734865501748
O          -3.35458929687184    2.62928361406690    0.05724419191736
H          -3.94331975247311    2.45181453503542    0.79373048354821
H          -2.48045466877800    2.87431324257389    0.45031727886985
O           1.45887708124717   -2.12859138875235   -1.64739468372168
H           1.35399558546580   -2.68945580902141   -2.41752910096853
H           0.54565579881530   -1.77748600166465   -1.45419588229570
O           2.00280020311943   -2.99168057191574    0.83927480736065
H           1.77814748947364   -2.81401620489644   -0.10123421050357
H           2.92747012231372   -3.24395100243282    0.85415322022420
N           1.24101410545230   -0.48097136637590    1.46304339071466
H           1.46305999553983   -1.50073502789587    1.42207088256466
H           0.19570524710276   -0.32240398081658    1.32028088743599
H           1.54615048455784   -0.06552924640674    2.33679061499697
H           1.70910337431179   -0.02076271251934    0.61257568796914
