    26
        -50.47210211  Gyration_radius:  2.44444568665 Dipole_moment: 5.074
 S          -1.46284432902319   -0.68536318142581    0.63485282903159
O          -2.34391511112046   -1.41104182095166   -0.24268949176658
O          -1.32735974056495    0.72470036540147    0.20055695507495
O          -0.12594134598347   -1.27877488072014    0.71930569444535
O          -2.07561374896352   -0.66670969188993    2.05686738195991
H          -1.30976915941243   -0.53724724621571    2.68296281456314
H           0.15045849421884   -2.42829502037208   -1.13125939529668
O          -0.49744632996272   -2.31103793625461   -1.83579537081867
H          -1.34275615577679   -2.20603948241908   -1.34242289381750
O           0.29572014104916    1.98579882741473    1.80542594514883
H          -0.36086373979788    1.57603714049600    1.18761127576308
H          -0.05380051358545    2.84604798105389    2.04135089871633
O           0.18669304933542   -0.32311273830783    3.25752422184718
H           0.37931375693395    0.58559396856982    2.96115121637551
H           0.53555144774753   -0.90392385172144    2.56662542254353
O           1.97061703461396    0.32710427509154    0.31903729780354
H           1.70363970501935    1.07503199984116    0.87036633502826
H           1.24851582937220   -0.32826295615067    0.41975103914782
O           2.03949096573768    1.08382922774351   -2.18495241101419
H           2.10997752325173    0.85901797441002   -1.21710914826493
H           2.71946633733835    0.57162563393638   -2.62512570371341
N          -0.49276160067198    0.30204461787352   -2.25336460099367
H          -0.46094888531717   -0.76145807868316   -2.24424661112418
H          -0.87651493385176    0.58300370719516   -1.30539818581032
H           0.49036521434605    0.68001696299812   -2.34856995985697
H          -1.09927389495752    0.64141420310451   -2.99245556497722
