    26
        -50.45069585  Gyration_radius:  2.4744170783 Dipole_moment: 3.135
 S          -1.76260289880574   -1.01902188665016    0.15763291671324
O          -2.50665985141824    0.20467065346920    0.28384611871008
O          -0.72295397299019   -1.17779947795332    1.16412920742510
O          -1.21070929091046   -1.21914632284295   -1.18638918721926
O          -2.78128316029683   -2.20734287084667    0.37606055858369
H          -2.22072981409173   -2.97264252002247    0.30206503837303
H           0.13697332134170   -0.79184025877874   -1.55751540639793
O           0.74881205920138    1.86477512218711   -0.77765960679724
H          -0.10680919600113    2.02712582827304   -1.24548537018812
O           1.06374927575305   -0.37924516454854   -1.77111878816701
H           1.01830527824023    0.61560579026975   -1.32822430020620
H           1.77956637107048   -0.92770549851609   -1.30022658362703
O          -1.67598368375828    1.63170250795220   -1.79124902749650
H          -1.68354167690015    0.96969467673433   -2.48647476086850
H          -2.09197791472475    1.19132607081724   -1.02041380632010
O           1.83264608001235   -0.71114457998496    1.77776110358083
H           0.90996155158508   -1.00802854959476    1.64900264350910
H           1.78826237807681    0.24765418791133    1.81806176395195
O           2.86537319823406   -1.63210671634549   -0.45063777057880
H           2.56202839132569   -1.38841301386326    0.46113106458625
H           3.76819833802459   -1.32226106043021   -0.53913949937504
N          -0.33385034166468    1.60936686301849    1.63876126596462
H           0.47806513088847    1.80078545532978    0.17980410729553
H          -1.17705203172569    2.14077956615276    1.45146727262001
H          -0.62173572655487    0.63137700706306    1.60461626456634
H          -0.05605179402659    1.82183419138483    2.59019478133278
