    26
        -50.46843567  Gyration_radius:  2.46820529557 Dipole_moment: 1.077
 S           1.18128670204105    0.41176311014262    0.35013175011865
O           0.03722729070027    1.17679425120207   -0.13489605668635
O           1.43339775608311   -0.74524189433962   -0.48792837369687
O           1.01064426686154    0.06099546426601    1.75869979902396
O           2.44603238025797    1.31948661104730    0.23650754098077
H           2.31057387458463    1.98543304405464    0.93945288166733
H          -0.41307393935900   -0.75569685801852    1.87029975849142
O          -1.25277788586233   -1.27192099213631    1.87993811763373
H          -1.29304554332524   -1.70176985721328    2.73603274944876
O          -2.70588343522385    0.64146438369218    0.33394942468073
H          -1.91672003001747    1.19627727346581    0.34723991985665
H          -2.50568781495356   -0.07579996927041    0.94812562108226
O           1.72888471882861    2.47424708062028    2.49990863359663
H           1.30683033774759    1.59247575029173    2.46534902224559
H           2.35709147555933    2.45014995828515    3.22538546589224
O          -0.70680875440110   -2.38453449041917   -0.54470060919201
H          -1.05383803097064   -2.18190951908088    0.34337045983563
H           0.21135520022898   -2.05636870549466   -0.53018887447978
O           1.06597589583892   -0.28500176873881   -3.11554145512847
H           1.29229599486530   -0.45820472851501   -2.17968557087819
H           1.89542998532686   -0.28420066067683   -3.59387009034491
N          -1.31475852897066   -0.21950601250721   -1.90303062594967
H          -0.80999209938995   -0.21056691224168   -2.79451437323728
H          -1.22786149420425   -1.18488563018845   -1.45559195790691
H          -0.79114766582491    0.42590011660340   -1.24141765246627
H          -2.28543064638231    0.08062095520252   -1.95302551455141
