    26
        -50.45558334  Gyration_radius:  2.65538311357 Dipole_moment: 7.296
 S          -0.88391234269587   -1.62361518451370    0.68141670051708
O          -1.32412824110946   -0.51943565448248    1.53067601813771
O           0.55169024279576   -1.77988999744986    0.68814633670587
O          -1.43733123421088   -1.50964946149512   -0.66027781617007
O          -1.49778114035849   -2.94116620177214    1.30428312110093
H          -2.43045954314912   -2.78950837262967    1.19234841385772
H          -1.09237518233231   -0.01230956055959   -1.32365355783977
O          -0.70225163619859    0.78412937672303   -1.75143253459033
H          -0.87781012274368    0.65552619999241   -2.69013820375484
O          -0.62034673846166   -1.56945538877260   -3.36944453241230
H           0.32355727562044   -1.69131922125251   -3.22443933976112
H          -1.04251509094956   -1.77987162679595   -2.52516542677616
O          -0.25914965343944    3.48759779307848    2.60577439092734
H          -1.05076476458511    3.21275854565906    3.07474585887559
H           0.41532112915654    3.67557032375227    3.26207881381141
O           2.49817320629674    0.16358042643721    0.80669333763400
H           2.08255602848132   -0.64360259825753    1.14822224684973
H           2.60151608575220   -0.03189747441026   -0.14481942097822
O           1.64374973716064   -0.76959159081949   -1.59049384935110
H           0.95404001984427   -0.12342043354948   -1.81074394507323
H           1.24804076986433   -1.34037855203239   -0.90829586730904
N           0.18474341929760    1.45603456449004    0.73905375728167
H           0.07927980634482    2.32184878617153    1.28524647128611
H          -0.08346280942970    1.58862927018485   -0.24417936145823
H           1.17538834992424    1.07623725172981    0.79315457540076
H          -0.45576755089445    0.70319876055631    1.13124383308632
