    26
        -50.46201517  Gyration_radius:  2.6932924577 Dipole_moment: 2.880
 S          -0.95268922972189   -2.30872571324903    1.08707777205409
O          -1.81861593163097   -1.25052514762438    1.60885848601736
O           0.44935563505551   -2.01211503993434    1.24480670137410
O          -1.32578085883279   -2.65741708105619   -0.27719028703316
O          -1.25115344098601   -3.59111374404574    1.96903983708166
H          -2.16513885620199   -3.75447227002104    1.76045222226721
H          -0.90509502128012   -1.52542597167719   -1.27222490947261
O          -0.72264109140451   -0.73743217185784   -1.85997675107202
H          -1.00803068227467   -0.99229229991257   -2.73894592353909
O           1.18961515923006    2.87064558262979   -1.51006758241842
H           1.95834200160430    3.39440626851053   -1.73699986387313
H           1.44978629291421    1.92477604814256   -1.65083478052488
O           1.83436382269378    0.30456576892371   -1.56734901177516
H           2.01420655687501    0.16235756442806   -0.62231389776043
H           1.00555945639135   -0.16850410401341   -1.74478239689143
O           0.40278504999427    2.34651654025440    0.98870034234735
H           0.70813403125571    2.70556442588289    0.12538199552752
H           1.02969401846640    1.63302732433627    1.20992293008710
O           1.94035965615836    0.10494641821328    1.19010428769711
H           2.69079931395719   -0.11117661031353    1.74523084355536
H           1.34295067232569   -0.68295050400818    1.23521200721216
N          -1.58857282799592    0.88414699775238    0.15479267057375
H          -1.28931145428553    0.48112128147716   -0.75172219539480
H          -2.45894411680677    1.39463777236924    0.05332993839209
H          -1.71757249996543    0.05611891329571    0.81842897165457
H          -0.81240567552570    1.52931975146407    0.54106859388842
