    26
        -50.47033136  Gyration_radius:  2.48271520067 Dipole_moment: 2.342
 S          -1.41833308153557   -1.50714440730483    0.02359843342322
O          -1.85627580797021   -0.66894088513823   -1.08614172223074
O          -0.89357334720750   -0.71454362587795    1.12569955576104
O          -0.52235856365239   -2.55931325381086   -0.39735486535163
O          -2.71652502599878   -2.21230971618332    0.59476903872157
H          -2.90115005843592   -2.87374930572888   -0.06406326123748
H           1.05358037889249   -2.08627435793918   -0.87910113588079
O           1.84107589195438   -1.52010751320715   -1.02206773323578
H           2.10660512359562   -1.25340104710091   -0.12616824664505
O          -1.91913877820589    1.66538924143075    0.47912708202851
H          -2.46156374387484    1.35290909523572   -0.25051263604271
H          -1.55990680765133    0.84677855502106    0.87101410124713
O           0.37982843835568    2.58806250566881   -0.55838650383176
H           0.99100743292373    2.47351830914257    0.19931276955039
H          -0.51497610072829    2.45833308442907   -0.17253262949931
O           1.65667842219480    1.93166513753741    1.72244727947222
H           1.81146590260181    0.97138050915591    1.68433477797160
H           0.95193668874744    2.06336083705772    2.36034475636126
O           1.66665691585454   -0.81697860057501    1.62286049557256
H           1.82679782116462   -1.43474028258986    2.33776834075602
H           0.69079752103538   -0.81820294730692    1.46726275117558
N           0.36642144677127    0.42873053404014   -2.00937484986793
H           0.43188171668178    0.59234163060954   -3.00809390374061
H          -0.56795869616494    0.01566136635592   -1.76052000063320
H           1.09396681907042   -0.27775060544504   -1.69298874592644
H           0.46305951156716    1.35532575251490   -1.46123313791324
