    26
        -50.43514901  Gyration_radius:  2.48100450153 Dipole_moment: 8.613
 S          -1.72897485306488   -1.48480116088649    1.31850012913769
O          -2.26701487319248   -2.10070512198880    2.47213019000007
O          -2.48637161355691   -0.39994619510185    0.73844289746314
O          -1.43132892091716   -2.53030079411484    0.22876013526589
O          -0.31199169924883   -0.90092680360447    1.66017302929447
H           0.38952012072188   -1.20721405529555    0.99343034223045
H          -1.32828351744873   -2.06470250625190   -0.66678130135448
O           0.66285398451342    0.49847212376481   -1.61121034488716
H           0.82102766523799    0.87247545751138   -2.47603165787908
O          -1.02888934069045   -1.39566122563515   -2.02133169871966
H          -0.56839861453935   -2.06925412167892   -2.52532513869106
H          -0.37114471423976   -0.63788294709630   -1.88700182473910
O           0.60899041532064    1.77320035557833    1.96238761592034
H           0.34570826887738    0.90157113800928    2.28357310338942
H           1.42058795651484    1.62488560646528    1.43651298678688
O           1.50834775751476   -1.44647892847193   -0.04505631545326
H           2.30241765487490   -1.07919885363841    0.35499242138014
H           1.24779428289892   -0.79228176503215   -0.73688923972259
O           2.51071444619378    1.29378116025201    0.07344734593284
H           1.84026989758496    1.05117696837372   -0.62479552007569
H           2.99917414008865    2.04729779827466   -0.25706287247521
N          -1.04896308700489    1.64103326261806   -0.14003333085537
H          -0.31882808123495    1.19192168664835   -0.87010003021729
H          -1.55718486396174    2.42935904256687   -0.52123330040832
H          -1.70969578076814    0.88104694549346    0.14706214909331
H          -0.50033664045889    1.90313294325445    0.71344020959682
