    26
        -50.46273561  Gyration_radius:  2.68849505137 Dipole_moment: 3.812
 S           1.23756310381043   -1.39398285953257   -0.81214167436671
O           1.40957830998608   -2.71008054905821   -0.26138722230383
O           1.67701518527377   -0.33040295487796    0.10865017439564
O          -0.14415117426078   -1.13421217941833   -1.22462163123420
O           2.14332223329472   -1.28511436179581   -2.09093851526915
H           2.21800838696407   -0.33709570984018   -2.29148180445481
H          -0.50008820831266    0.44916824669572   -1.74648795307585
O          -0.55075567070370    1.41275253309392   -1.91056650366272
H           0.36519854143549    1.69844984803013   -2.01652200178359
O          -1.85717453784142    2.73085792905497   -0.02276823886584
H          -2.63421708377251    3.05624154084735   -0.47958180884671
H          -1.33737185725964    2.24021808394995   -0.70804415950392
O          -0.00353040249100   -3.16320058619803    1.93048046217481
H          -0.46503018781615   -3.99224019082430    1.79349031360330
H           0.62100390395346   -3.07847427003897    1.17321210094075
O           2.25099515496016    1.40496340605570   -1.71306002287407
H           3.09358215612024    1.84697063106179   -1.59431302220969
H           2.07474576718621    0.89981451024167   -0.88163925361453
O          -2.25775571251597    1.30506427988697    2.15831283478764
H          -1.97895451399931    1.85907715314709    2.88889848445662
H          -2.16987970595574    1.86190222774896    1.34307912181879
N          -0.66579793096812   -0.65716651649252    1.30356794968494
H          -0.88615876366565   -0.84587195113698    0.30152933660727
H          -0.62367591356530   -1.57985629483492    1.78893018364025
H           0.30730506285369   -0.30145911642033    1.23034190233182
H          -1.32377615243522    0.04367716076645    1.73306096788923
