    26
        -50.46923222  Gyration_radius:  2.40978684499 Dipole_moment: 6.097
 S          -1.76986563229830   -0.41993747520371   -0.02287855526939
O          -1.70398936362908    0.97617671282374    0.30604506439784
O          -0.93126499578685   -1.25993711235227    0.83441849083442
O          -1.48945574379010   -0.69946098165978   -1.42659845585489
O          -3.25330514804046   -0.88986174200044    0.25003899433458
H          -3.19899233384408   -1.83799854748172    0.18661778752017
H          -0.23257049060336    0.29164694607490   -1.95816382584572
O           0.66069670275918    0.65576286601504   -2.14898760030546
H           0.94136045537455    0.23815445473280   -2.96648847373724
O           0.60772605740008   -2.36966297549239   -1.79510464714202
H           0.32771357173849   -3.21341753162461   -2.15070263359953
H          -0.20481235229204   -1.84419902213039   -1.67191423296318
O           1.81470341598004    1.35751057897701    1.82279315107891
H           1.06066766543434    1.12443742965913    2.40810999790405
H           1.44766080578860    2.03674170427908    1.21440074932791
O          -0.56679213815224    0.56638543719713    2.79582872895499
H          -0.69400499696751   -0.23980393788190    2.26860307149980
H          -1.13810604915791    1.21315848706095    2.36750640053064
O           0.42923485029517    2.61936991032160   -0.08955344209786
H           0.68323657774482    2.32321851711414   -0.96990652744446
H          -0.42509912876438    2.18597804180593    0.08045678668861
N           1.55202859944482   -0.57590643347751    0.13164472559935
H           2.24260298251412   -1.31298519652917    0.03443658998905
H           1.81254128571858    0.18351716660199    0.86757887418031
H           1.39195744749322   -0.11804870307715   -0.79060789588120
H           0.63612796565987   -0.99083860375843    0.42242687730159
