    26
        -50.45063538  Gyration_radius:  2.46341407 Dipole_moment: 5.662
 S          -0.49800102219728   -1.52550761541880    1.35934054205305
O          -1.28897601641212   -1.55432010683127    2.54708573531635
O           0.41968797755592   -0.43165468027508    1.22900961381271
O          -1.43188535211438   -1.53115539148062    0.12277826656630
O           0.26507937644398   -2.86412964960921    1.23468504170609
H           0.74154397173884   -2.81348651369672    0.36258434902554
H          -1.15985105800775   -0.81179242032252   -0.57463186739577
O           1.92537692395908    0.06917685702254   -1.81527554744114
H           2.56224474872687    0.33032279023243   -2.48120375655695
O          -0.77922235697642    0.23816886757693   -1.54799322735610
H           0.17812145041945    0.16930629885923   -1.72670655512643
H          -0.88186159588264    1.05989328172637   -1.01746888568140
O          -1.16009262600102    2.35590137539545    0.06951653609608
H          -1.86813327288096    2.96098819615156   -0.15993754465315
H          -1.51315324794176    1.79384676263513    0.79267008804593
O          -2.50014528876815    0.69202416789582    1.71272162671569
H          -2.05609686306021   -0.00836560188245    2.22106872058627
H          -3.14234422091241    0.23308288140097    1.16534059535501
O           1.18213605598814   -2.45995246055706   -1.16078474635413
H           0.37874466004239   -2.48506541829847   -1.68706431518546
H           1.57395388157644   -1.57463706612455   -1.30317350455397
N           1.85567643369937    1.75398507994553    0.18365216295232
H           1.12616561649830    2.44541137079315    0.04808324753542
H           2.00619099756540    0.72493326429619   -1.04975273803208
H           2.61589928494335    2.19233338385543    0.68762043053840
H           1.44894153198686    1.04069233671278    0.78783574202062
