    26
        -50.46722593  Gyration_radius:  2.52025663692 Dipole_moment: 4.281
 S           0.79504787027209    0.46074953561337    1.08812267413787
O           0.74575212283779    1.84767174763000    1.51232948503610
O           1.13424102760843    0.30747331944348   -0.31143390726913
O          -0.46527467661498   -0.23724311236460    1.38796451362933
O           1.92067300615466   -0.26940744588628    1.89562619922969
H           1.80910353076344    0.05941533704114    2.81039110952940
H          -0.98877730562156   -1.37555286308041    0.41893762470812
O          -1.40808738043197   -2.00140073622232   -0.23700039308896
H          -2.08238437029704   -2.47334143076709    0.25418182541189
O          -1.61323364486277    1.72444214782282    0.07426132394767
H          -0.91476707572033    2.36736949138552    0.23949955718635
H          -1.38869363255068    1.00316499883945    0.69927337084370
O           1.16508853973966   -2.15279795850069   -1.44287030311510
H           0.32407807614221   -2.48940571590904   -1.11287319001674
H           1.36194184799715   -1.38669314357039   -0.87396231093440
O           0.81688972506513    0.01816445353450   -2.98187911237024
H           1.20233235197813    0.50048032782615   -2.23406588792924
H           1.04279465552656   -0.91233583220944   -2.76777367450904
O           1.36083762598054    1.26347179500206    3.98042318923048
H           2.06858078211927    1.83454473696168    4.28751139503322
H           0.99631646141668    1.68709166799917    3.17340481798822
N          -1.60054014923344    0.04648915244228   -1.99357307852430
H          -2.37251474976855    0.11807844029170   -2.64716044056348
H          -1.64477562098751   -0.83762076635748   -1.43885323206646
H          -0.64403141409814    0.06643055446402   -2.49418411983249
H          -1.62059760341614    0.83076130856413   -1.28629743569313
