    26
        -50.46901120  Gyration_radius:  2.39484770821 Dipole_moment: 8.167
 S          -0.71147975097964   -1.15027541141801   -0.42375155633550
O          -0.02084419379046   -0.07978046788332   -1.15555052581581
O          -2.13401427185653   -0.85163282405800   -0.29609554167167
O          -0.10049044989028   -1.33392799029631    0.89282028677088
O          -0.57288398988886   -2.44559700421536   -1.23023687006832
H           0.39048754298834   -2.43039636564735   -1.54557444455719
H          -0.06637324658932   -0.02247752423511    1.78186687705349
O          -0.11652824502449    0.83703182967827    2.28605899905125
H          -0.03713295134817    0.60093408084034    3.21188220814070
O          -1.12184582037239    2.28666487746248   -1.48669564287780
H          -0.62697520031312    1.43360038599065   -1.44498519952297
H          -1.56836327315834    2.29015821223939   -2.33480104683413
O           2.01629960088565    1.00312982719931    0.26958088509700
H           1.31663228569152    0.67729237909843   -0.32494029051311
H           1.55636485429382    1.29726333569100    1.06220197627764
O           2.56562568700731   -1.64671279597146    0.60467282326527
H           1.63754014594220   -1.72838877427309    0.88653314360006
H           2.71195656134022   -0.68310405970983    0.55469076985391
O           1.85657190866719   -2.07910500690611   -1.88412655198600
H           1.75560102478296   -1.16213053769361   -2.15900209520963
H           2.28811790503953   -2.04159999545008   -0.98689833655318
N          -2.22957259217549    1.47399838054046    0.76816411459878
H          -1.47534804850159    1.42190449747740    1.48977959766335
H          -1.88775488061007    2.03640847855873   -0.05288449113100
H          -2.32381874899076    0.47076248513601    0.37032704055484
H          -3.10177187314223    1.82597999787567    1.14696385115513
