    26
        -50.46822025  Gyration_radius:  2.44897617866 Dipole_moment: 4.552
 S          -0.87297768493493   -1.11011568770276   -1.49389854983398
O          -1.89808780159927   -0.45666995398623   -0.68231726650111
O          -0.21248742748880   -2.18440091452458   -0.79551977178292
O           0.03469989021046   -0.13255166924890   -2.07277378994893
O          -1.62826812140966   -1.78479532004131   -2.71326484345671
H          -1.78580810304026   -2.64821988362906   -2.34821787698075
H           1.47397560249432    0.10556977224187   -1.42925040578418
O           2.32855055244055    0.35829499387044   -0.98742950311486
H           2.98163059968817    0.41321157293047   -1.68621152788361
O          -2.07813366602328   -0.68231674237541    1.94576267153541
H          -2.01065183699678   -0.70875271946658    0.96791650710849
H          -2.87201688395575   -0.18310854396698    2.14344155549254
O          -1.18327801193655    2.03145514208659   -0.92975735739613
H          -0.74834015028974    1.90740799210448   -1.78034824841549
H          -1.60648704441624    1.15354730844682   -0.77779627724696
O           0.41471495669061    0.08638216976222    2.53793602151080
H          -0.51558543420130   -0.21687049693442    2.46140482307473
H           0.94713949143034   -0.63942891311926    2.12646419840030
O           1.71734059299830   -1.59363788424356    0.96945089914335
H           2.22092952654440   -1.02401950309200    0.37366012139824
H           1.00305797993057   -1.96102647775317    0.41320310944564
N           0.86603280708503    1.88023954471281    0.75381211413010
H           0.63849921575697    1.16495226769037    1.56143701186862
H           0.00490604882291    2.01866738522766    0.14983099928419
H           1.18955965201324    2.76216329728443    1.13480014498093
H           1.59108524021982    1.44402325375938    0.15766525096876
