    26
        -50.46434314  Gyration_radius:  2.5072964583 Dipole_moment: 1.183
 S          -1.64302715060392   -0.71998562152878   -0.89583959489470
O          -2.05768373138334   -0.29127716830036    0.43829256222433
O          -0.30527432726980   -1.28292777478731   -0.88289759381780
O          -1.83258889900329    0.31957360854924   -1.88375023995078
O          -2.60698612173591   -1.90737941824667   -1.30023746712533
H          -3.42871337306230   -1.44966335466624   -1.44152847258824
H          -0.95793820596491    1.69593497631331   -1.74226262838766
O          -0.36396865047698    2.46990064515500   -1.58855391367403
H          -0.36215005610968    2.97194837304142   -2.40462994549849
O           1.32525224411478    0.73504495542246   -0.35023025891234
H           0.93994019680898    1.52691304774481   -0.76335508182255
H           0.78491235149286   -0.01177534192749   -0.68618055788358
O          -1.13357632189934    2.26031545365355    1.13467108609034
H          -0.87090861192186    2.65648705901159    0.29564850676842
H          -1.72817170021146    1.53619878016669    0.89894074839155
O           3.31757361763046   -1.08122648824349    0.18998551246233
H           2.78240350558963   -0.29335059869111   -0.00529803902744
H           3.69212843453467   -1.36761834073917   -0.64439655623595
O           1.15406329083101   -2.43984869873660    1.12784725041166
H           0.61168284854359   -2.33327533510978    0.32686343834844
H           2.04956528611954   -2.14116599551484    0.87003176139904
N           0.13324763252194   -0.16517539884186    1.90145730897604
H           0.58264515004294   -1.13138380902910    1.83071412592740
H          -0.82154831495128   -0.24033913915826    1.45970601465919
H           0.06932346304780    0.21130859524627    2.84102146473609
H           0.66979743331967    0.47276698924154    1.27398056941185
