    26
        -50.47196985  Gyration_radius:  2.42903537838 Dipole_moment: 5.396
 S          -0.98815752262654   -0.50587493830921   -0.89214759468654
O          -1.68605418252257    0.14417258607603    0.22736092004405
O          -0.83609818878833   -1.92374081173401   -0.69957939355796
O           0.33439713784638    0.13614715834259   -1.05821209098089
O          -1.79487098312927   -0.25552541235296   -2.17800265078778
H          -2.19763315428118    0.65437632473005   -2.05588493988989
H           1.25563867972353    0.81779478102890    0.20483758888770
O           1.77844079350803    1.01196767344998    1.01255242143304
H           2.58096803533368    0.49245385479990    0.90770710645650
O          -0.00898793927003    2.75788432885832   -1.44188250216925
H           0.54141705345382    3.14591276390306   -0.75887160476932
H           0.17952867335612    1.79892490231604   -1.43360887331577
O          -2.61683427766326    2.04959060387361   -1.41036517107111
H          -2.54653294545272    1.62685523906667   -0.54024809262892
H          -1.79632329445723    2.56770092260340   -1.51945796070443
O           2.31459049279555   -1.55760804875961   -0.41360433783129
H           1.57829595947995   -1.00689678165935   -0.75265065209743
H           2.53317835904809   -2.16265239243230   -1.12392835375850
O           0.61235559595182   -2.71112283556549    1.36041267190500
H           1.44107861517248   -2.47011924585104    0.90304147901349
H          -0.04741704089199   -2.68357966574142    0.63487153535535
N          -0.13117487270187   -0.37892551287556    2.24569135374858
H           0.67675486866819    0.25056215683217    2.01669594653851
H          -0.88022106482909   -0.15670622504139    1.52300146318846
H           0.17434162560877   -1.39319473547020    2.05020451904549
H          -0.47068044307196   -0.24839670011960    3.19206720272505
