    26
        -50.46416139  Gyration_radius:  2.59498366687 Dipole_moment: 3.302
 S           1.41511299520256   -1.64892567545400   -0.02012404033266
O           0.11128720302562   -1.92228364306972   -0.58571766812415
O           1.40077990529010   -1.48013411624765    1.42553458088717
O           2.08787355587045   -0.53789500989238   -0.68518804169486
O           2.29028331562090   -2.94244416123023   -0.30385444343810
H           3.09690367699395   -2.78640742366237    0.17785101454520
H           0.95377307779943    0.06042809957021   -1.72636204145222
O           0.07275257239405    0.25757044153676   -2.12488486422828
H          -0.34505400848397   -0.61239803161856   -2.13222433681615
O          -2.66180902456971    0.12646698726912    1.50683588520284
H          -3.49790318382858   -0.14152632772912    1.12330792871020
H          -2.15793912431754   -0.71559762206617    1.67293217102670
O           1.53996990881932    1.13615871985126    1.38856433641321
H           2.11752675823072    1.10112120464666    0.61566178696415
H           1.47769955476336    0.19076835521463    1.64637995478626
O          -1.24246943804258   -2.07579961009492    1.67695302329905
H          -0.92084543874284   -2.16496229506684    0.75791295926457
H          -0.42252599207340   -1.93831312632097    2.16800506802091
O          -0.66081572420100    3.02308270514772   -2.11769166990945
H          -0.36712443165100    2.14863343509740   -2.40996483923000
H          -0.41650404469382    3.64008283736989   -2.80792061514363
N          -0.79062253883369    1.46797599732254    0.16084135311671
H          -1.00284261374665    2.41682510642955   -0.14923403688304
H           0.08581514842833    1.45167115807384    0.75553381544946
H          -1.58789524568825    1.03094232453394    0.68890106149054
H          -0.57542688357176    0.91495966039435   -0.70204834194375
