    26
        -50.43063050  Gyration_radius:  2.48890064464 Dipole_moment: 7.886
 S          -1.51718930930791   -1.91666312673261    1.09387340010286
O          -0.53999384270017   -1.07255729545247    1.78487197955528
O          -2.45450994263769   -2.56124237845029    1.93392215942634
O          -0.74799109133136   -2.92309326609732    0.22412071222853
O          -2.24964162174986   -0.99806935922980    0.09932813420641
H          -1.74361219806844   -0.94078017003493   -0.80535100693476
H           0.19064738265316   -2.55574307287042    0.06125556117753
O           1.15600089756182    0.35912080883682   -1.34169188982492
H           1.73737361254467    0.38402280012867   -2.09923166528582
O          -1.01141626503369   -0.75649229630060   -2.06435890233497
H          -1.48527599436525   -0.04892350615871   -2.50792059200398
H          -0.10671257050230   -0.35910568684012   -1.80056051741745
O          -0.60465137539274    2.19448457115982   -1.14668996731561
H          -0.20788806725747    3.04352892286127   -1.34387955246951
H           0.12304886350883    1.50116429010387   -1.30436646415590
O           1.48264955304376   -1.72691707431149    0.15312044244320
H           1.39755508454061   -0.96329785730390   -0.49532567367873
H           1.16256952365433   -1.38306565977937    0.99881149799528
O           2.21786504352716    1.43426474692692    0.71606520670744
H           1.87825431274815    1.02836674262576   -0.15477782108887
H           2.79295921856114    0.77132475892286    1.10087191201260
N          -0.31594601144783    1.51424252629301    1.40191090805212
H          -0.68881105804236    2.09334962255110    2.14521494203226
H          -0.67033915889055    1.80964016336901    0.45113956378754
H           0.74438147311870    1.57631070098436    1.32625110609794
H          -0.53932646877352    0.49613011488176    1.57339650669896
