    26
        -50.46910881  Gyration_radius:  2.45569568442 Dipole_moment: 3.563
 S          -0.51578843046321   -0.81749250995756   -1.70942386791568
O          -1.77800257385548   -0.35763954985359   -1.12167943712164
O          -0.38166453017093   -2.24034227416163   -1.75244154961529
O           0.61212778175675   -0.16889468967095   -1.01693958642937
O          -0.48537904590616   -0.26527721301505   -3.18202161960390
H          -0.64826575751103    0.68196780438826   -3.06673259502059
H           0.25642271285237    1.17203537460160   -0.19278985157139
O           0.01581181879704    1.95658266051374    0.36271879665869
H          -0.39743903790874    2.56399094362430   -0.25837912568845
O           1.57213945613862   -2.33413649358968    0.08586970629395
H           1.45032155013326   -1.48420456881479   -0.39034018094608
H           0.98846687303687   -2.91680200143284   -0.41887491889225
O           2.11324656874763    1.07627028623589    1.84356334375780
H           1.40649475600527    1.60977672713713    1.43430654409831
H           2.71183208520435    0.85359675129606    1.12651224740691
O          -1.57466186197470    0.03172339547280    1.47416456632688
H          -1.79507697693345   -0.25780590236041    0.56151701962375
H          -1.18314937041406    0.91371480496397    1.33552522221394
O          -1.51209218914082    2.02851918043882   -2.07472598759835
H          -1.75421480764889    1.18930529011705   -1.61340093286827
H          -2.31444537291996    2.34571618927868   -2.49344824558368
N           0.64233066582811   -1.13605263933141    2.24063898590054
H          -0.32805883851906   -0.76222734516131    1.97848928329100
H           0.63012628886107   -1.61302786439352    3.13484136589818
H           0.98690915355897   -1.76738687913858    1.45821328474744
H           1.28200905247465   -0.30190946716774    2.25483750263336
