    26
        -50.46863458  Gyration_radius:  2.40816883363 Dipole_moment: 3.377
 S          -0.24326075231270   -1.51390029935524   -0.90264687960312
O          -1.29080476109814   -0.84413844018501   -1.66309680710978
O          -0.39095575495975   -1.30666027480779    0.51862839874901
O           1.08211937633981   -1.18894406844555   -1.39608165796488
O          -0.43049601748573   -3.06866484357621   -1.14551478633077
H          -0.14190053345050   -3.17751401123933   -2.04561449665616
H           1.37583630619180    0.40120999506343   -0.94514378425495
O           1.30612927049867    1.35009929135388   -0.70580666639441
H           0.65198641136566    1.70121071940266   -1.33791674794915
O          -2.29997654752061    1.00018713740077    0.06637328091491
H          -2.06054813788793    0.14160353965963   -0.32703462632877
H          -2.25036369939132    1.62303571085966   -0.66812391240608
O          -0.83399273050437    1.65217568562652   -2.36706206071407
H          -0.73319760990100    1.73838351675276   -3.31582695698868
H          -1.00978531241869    0.69699086264850   -2.19609748872551
O           0.38488972537717   -0.58935245426137    3.07452010300367
H          -0.21156444638121   -1.14513237462593    2.55519590992632
H           1.26826177485897   -0.85524578340063    2.76983548350999
O           2.22374497966896   -1.38487581188938    1.22484638321265
H           2.81053959678066   -1.17131331972987    0.49712697913277
H           1.34225201723191   -1.47280025519300    0.82369723056899
N          -0.10670037538242    1.50461716579128    1.51695866718058
H          -0.08687017086081    2.40981951453604    1.97354850738096
H           0.58221213748915    1.46421075363273    0.70633233279681
H           0.11180899724523    0.72291110574931    2.20242132232295
H          -1.04936373349227    1.31208693823856    1.08648224272294
