    26
        -50.46486358  Gyration_radius:  2.48626832772 Dipole_moment: 3.310
 S          -0.41826876994809   -2.22146943903789   -0.32901151554318
O           0.50704414548272   -2.01135216935530    0.78617085542866
O          -0.98427462933531   -3.52530754863165   -0.41991092803008
O           0.50313743770702   -2.07644725887559   -1.65499434005611
O          -1.35506290164791   -1.10704100282270   -0.40796712445888
H          -0.65221686809392    0.05329663927325   -1.25038244790669
H           0.36879406414622   -2.95237996433648   -1.99948510713448
O          -0.18742692545348    0.78032476602455   -1.73884518037077
H           0.12743683824462    0.38167099935530   -2.55130436684023
O           2.71378762348008   -0.84078650749277   -0.16246368552769
H           2.73918685322163   -1.12434053769213   -1.07842076636091
H           1.98570955427221   -1.35367937531773    0.24349170355396
O          -2.37959137022043    0.79688069499945    1.25204252038773
H          -2.34891083763464    0.05065264455043    0.63037430063030
H          -2.28340719138474    1.59916346374110    0.69882339053987
O           1.56019041567965    1.55981112856509    0.19275607100999
H           2.21557883611998    0.83666825854056    0.10554753118984
H           0.96952720402052    1.43030216832365   -0.57478397517963
O          -1.53033664474070    2.78321291198377   -0.39414454687601
H          -0.78016070788861    3.28074506797441   -0.06177928610212
H          -1.17706855739702    2.18033073615851   -1.06696293895461
N           0.08531865056392    0.30428326708919    1.98691059211062
H           0.34263636107129    0.35890343163819    2.96585183736087
H          -0.94331483819892    0.55563807788109    1.82682906031678
H           0.69584506966712    0.93333465589881    1.38354888222077
H           0.22584720827357   -0.67241510843214    1.61810946457906
