    26
        -50.45213691  Gyration_radius:  2.43908652179 Dipole_moment: 2.849
 S          -0.83765928364429   -0.60619319233512    1.34939994156198
O          -0.55592139929561   -1.02779646997655    2.68056095303891
O          -0.41206852255272   -1.50038297477507    0.30730772795788
O          -0.18643869290543    0.79180514415726    1.08907397462195
O          -2.32198164123080   -0.27268320700783    1.19919645995220
H          -2.48324483093444    0.07469388076307    0.25275806209476
H           0.78949326694846    0.67277325774235    0.85170543796175
O           2.28506073632525    0.41330943275134    0.55923048735997
H           2.84781077377504    0.97898642142119    1.09249646675583
O          -0.77933732979020   -0.79977987259717   -2.25173346872925
H          -0.56927234592418   -1.27974395752756   -1.43106228002247
H          -0.03330776373905   -0.16493965437669   -2.36862658018395
O          -2.65253689236057    0.55298061050156   -1.18910526659908
H          -3.49770661199671    0.25550267176631   -1.53114054564684
H          -1.93473902369866    0.02692627131549   -1.69946188155204
O          -0.77621887445531    2.66751474069412   -0.91625390960342
H          -0.62675730277934    2.32669516896944   -0.02632522345434
H          -1.58373025625600    2.23301991850544   -1.21772883144422
O           1.12778385400008    1.05431715538951   -2.05281537462508
H           1.68126218425984    0.82013974078372   -1.29947714724196
H           0.54811565211836    1.78251063219775   -1.75450899957799
N           2.03179317441185   -1.89203669046722    1.74510570153864
H           1.67799955716408   -2.49696347324304    1.01276427684988
H           2.31729633832851   -0.51361241470248    0.97129854988010
H           1.23243450887791   -1.68432586613903    2.34118080268836
H           2.71187074534515   -2.41271728381182    2.28616066636243
