    26
        -50.44194553  Gyration_radius:  2.57574834346 Dipole_moment: 6.338
 S          -1.54390181199639   -1.86100187015083   -0.84548477789181
O          -1.58133005676801   -1.00094083877349    0.31423482870908
O          -2.06519976180917   -3.16753261389909   -0.71147559708242
O          -0.05436990459692   -1.90409784259464   -1.33286723772115
O          -2.20226933377986   -1.13013732385630   -2.03672851943549
H          -1.97901687653909   -0.16526908049985   -1.93131080706486
H           0.54833795356864   -2.18508645787429   -0.57262307062984
O           2.18103731536143    0.17515296277218    0.87838090093352
H           2.90733133808966    0.57139372546155    1.36072914889443
O           1.20588195351410    0.60403005456798   -1.65668111205962
H           0.99275885526505   -0.30775522452837   -1.88971835114142
H           1.64879352022193    0.55870647760082   -0.78988917738846
O          -1.00662198074029    3.20722646231338    0.67048540233384
H          -0.69074353119224    4.02798077251301    0.29112681821497
H          -1.27939115908350    2.64527713971591   -0.07590448495784
O           1.63667084294897   -2.39736824372517    0.52166301997636
H           1.89716580140270   -1.46672055916307    0.72810109001392
H           2.40854292707022   -2.83071701708072    0.15079369348483
O          -1.34228017950825    1.16693606881443   -1.17799737417896
H          -1.43186917295417    0.58923922716212   -0.39698958142329
H          -0.38557201278794    1.12460646254594   -1.42661459126093
N          -0.03781902083035    0.78101806899017    2.05377617899471
H          -0.09446935791804    0.74221861093897    3.06315429889626
H           1.31756053352010    0.44395328547982    1.37345516257865
H          -0.67727064589262    0.08263308277801    1.68159158989785
H          -0.37195622458720    1.69625468044652    1.75679255932243
