    26
        -50.46727658  Gyration_radius:  2.58409474464 Dipole_moment: 1.476
 S          -0.48963087751885   -1.36674620201896   -1.54576001658802
O          -0.81483669620726   -1.16442418985915   -0.13583109767079
O           0.63886578283947   -0.52148279424293   -1.92485447921456
O          -1.62247563292423   -1.27982894868058   -2.42612709182941
O           0.02966826625440   -2.86849591434638   -1.64299323158692
H          -0.49880082673657   -3.22621718077264   -2.34897562921634
H          -1.79268071731996    0.59935306408573   -2.38606887263665
O          -1.24065703551657    1.37643942125975   -2.21275059622514
H          -0.34545545869773    1.01066932512797   -2.26372493925259
O           1.21971724366788   -1.81589728245576    1.54919777544844
H           1.88849692397553   -1.28420613921094    1.09612868236114
H           0.45503801252074   -1.82169207533698    0.94614990202790
O          -1.46888014755298    2.95348372501972   -0.06478087965738
H          -2.40050129674431    3.12838351512570    0.07428560875272
H          -1.40544943332893    2.47860800126093   -0.92462798443161
O           0.27554947691333   -0.20646926654595    3.45292792585438
H           0.71134993472098   -0.89347776413812    2.89007774642721
H          -0.43048814502973   -0.65579455078982    3.91893474454911
O           2.33373858835218    0.20800819587796   -0.09825647625394
H           1.73822545220738   -0.10881784854353   -0.82474406163409
H           3.15980022093343    0.44972570996244   -0.51859880103950
N           0.00805971211304    1.03115680388130    1.09181874188581
H           0.98323972002160    1.07737194244050    0.75997290989222
H          -0.41817386483950    0.20577519137426    0.59417198118857
H           0.01171710169170    0.80702175694064    2.11059592368519
H          -0.52543630380316    1.88755351460246    0.83383220515752
