    26
        -50.47250312  Gyration_radius:  2.48734960427 Dipole_moment: 2.883
 S          -1.41238266261996    1.68978087029688   -0.54204752608196
O          -0.96617576391647    2.25628461613142    0.72500971591778
O          -1.62271964344938    0.25754949487881   -0.45182740281952
O          -0.55443996016771    2.07949054247966   -1.64473179345109
O          -2.83204487699915    2.32547048820321   -0.84233557188639
H          -2.59199352162262    3.22557524777968   -1.03374156708997
H           0.85846738285099    1.34344048478667   -1.61936731443755
O           1.70836634480168    0.82964413622502   -1.62308223134759
H           2.34019142036830    1.36895643513712   -2.10088551995648
O           0.72007922142805   -2.65718528560581    0.10030276545175
H           0.40823056510497   -2.20647172038352   -0.73765367185896
H           0.90757605096340   -3.56607811714003   -0.13475052580544
O          -1.37409332553640   -1.56685054211508    1.52222148469686
H          -1.71920219760152   -1.01481219755200    0.79626745381499
H          -0.70245231252531   -2.13607013135711    1.10387904929946
O           2.19865773082241   -0.42733592418067    0.75342980231814
H           2.12333589452939    0.05718940267499   -0.09041501367003
H           1.83932348240678   -1.31469026610708    0.57265629094955
O          -0.06359725041366   -1.28926636222612   -1.97314982336322
H           0.66437044103367   -0.66894886808028   -2.12541743611815
H          -0.75875812237543   -0.74902639426342   -1.54646903413685
N           0.17462484159082    0.44204993878792    2.20931702141555
H           1.07642273770781    0.17184027659192    1.71694216717799
H          -0.48108233788603   -0.39269971050619    2.12666916574012
H           0.33669901723383    0.70871695723636    3.17340714368460
H          -0.27740314576017    1.23344663828090    1.66577238153800
