    26
        -50.46373150  Gyration_radius:  2.4485913412 Dipole_moment: 3.683
 S          -1.19274651370386   -1.53717382325325    0.36602566675067
O          -1.03616700065255   -1.06458233114387   -0.99878291831994
O          -0.73193680066647   -0.52072865681835    1.31932068578474
O          -0.67086912422938   -2.83965283403921    0.64358965949861
O          -2.77920453361638   -1.61857002560316    0.58927340797272
H          -2.88592368423906   -2.42632845109834    1.08167835029933
H           1.67523184364210   -2.39520992872186    1.42598647765015
O           1.53678609026893    1.56147613368063   -1.61223390198482
H           1.32213310146884    1.74663892256483   -2.52743798439520
O           2.09387175974930    1.50700819239322    1.28341631208028
H           2.45513216919593    1.60759288467277    0.39823849435653
H           2.19919701492874    0.57752283676394    1.51084727782269
O          -2.69886429816617    0.98159113220881   -0.94986032414873
H          -2.14236346949040    0.19287850554819   -1.12990358166722
H          -3.42292761323268    0.65270082708581   -0.41349018370462
O           1.75382403573644   -1.44195295918911    1.33666687670864
H           0.84603932664228   -1.10695170989946    1.47326696491856
H           1.88235073997700   -1.22144845422944   -0.43333481526156
O           1.62458080315585   -1.01856749711087   -1.35294892897126
H           1.65972794399423    0.56834627509230   -1.55823944981901
H           0.66454645131450   -1.17966045779375   -1.38739278412875
N          -0.43469454321455    1.82653677888521    0.18684200105278
H           0.34093306036123    1.77943564922645   -0.52922314931602
H          -0.43689383141901    0.91632505865881    0.72711318784400
H          -0.25525344860717    2.59390444811917    0.82723553231609
H          -1.36650950944222    1.85886951324649   -0.27665288393112
