    26
        -50.46047704  Gyration_radius:  2.51725708685 Dipole_moment: 5.329
 S          -1.78089719986832    1.01712915802253    0.79983227185589
O          -0.60603561317061    1.40446985420216    0.03505962684980
O          -1.37942514437814    0.45694466366597    2.09078522601818
O          -2.71732757145904    0.18768908601823    0.08546523578437
O          -2.55366829638772    2.36868858524599    1.12111421855378
H          -3.45398972887245    2.06228272799781    1.14580129074968
H          -1.83839258758898   -1.14262100031657   -0.45292817092312
O           1.13533030569833   -1.93925766524450    0.18764367624837
H           1.33968802940327   -2.87059858436302    0.27842685230602
O          -0.35238828979211   -0.99726187796480   -3.26611208715223
H           0.28475752560381   -0.40862512552327   -2.81204278763986
H           0.14274984152140   -1.48614482941224   -3.92430748204468
O           1.87983644841379    2.12445829924534    0.63268345491442
H           0.92377343796156    2.21318942877827    0.44799209447299
H           2.24859567384438    1.81040128888533   -0.20282875708990
O          -1.22924519488730   -1.82900898150086   -0.79450512345751
H          -1.09430947964426   -1.60670857073307   -1.73540059420386
H           0.18100512691487   -1.90389793450969   -0.15408902777431
O           1.29404793385017    0.30046992014919   -1.53091371759947
H           1.45466746042051   -0.51003426874302   -1.02762401656543
H           0.52962675436424    0.72259485636051   -1.09350486922675
N           1.14407258759866   -0.00323718036203    2.05494473358795
H           1.57850157422026    0.84025590121359    1.58799672207961
H           0.08568236447320    0.20078075975382    2.14061170559349
H           1.23141517330155   -0.82891617352624    1.42042938848241
H           1.55192885859555   -0.18304232719009    2.96547013616599
