    26
        -50.46930074  Gyration_radius:  2.43438897963 Dipole_moment: 3.380
 S           0.46962969299263   -0.94533064719367    0.68594759695243
O           0.45622568712461   -2.14551268575148   -0.12200986277389
O          -0.85979641816988   -0.30382130280348    0.67607118260181
O           1.47995791446864    0.00981363324035    0.23244203664735
O           0.78598935346464   -1.33857210489228    2.14184781604319
H           0.93249467335250   -0.47459849059728    2.62955878083305
H           1.68150836616445   -0.33254995731733   -1.39093118329320
O           1.45413893143268   -0.58508210149403   -2.31423575882193
H           1.43730124283615   -1.54664857445352   -2.29905725112481
O          -1.62630852611246   -2.57350628973843   -1.69612667727182
H          -0.83028652857288   -2.53581270191634   -1.11459715812129
H          -2.31611125217760   -2.96733256683928   -1.16004385353347
O           0.49955135852207    2.32599435561570   -0.60243376567590
H           0.89720393667093    1.49198222325049   -0.26926687473890
H           1.24038665412771    2.89251242995610   -0.82251961715249
O           0.97147591738420    0.93486743119193    3.35343441666209
H           0.58752404914932    0.86501732155419    4.23007610159552
H           0.34446712445644    1.49522873539915    2.82028367171576
O          -0.81423217574544    2.09709200690277    1.81798942491775
H          -0.40389623762390    2.53000243490857    1.05212936554307
H          -1.04102537765985    1.20993389028384    1.47668986918031
N          -1.09146479118429    0.00864716776100   -1.89283101098381
H          -1.54964784454925    0.81738055931148   -2.29873411060511
H          -0.08338489691016   -0.08594223704614   -2.21322014550141
H          -1.06302532915813    0.06035702391891   -0.82945353780775
H          -1.55867551429044   -0.90411954326146   -2.09100944527544
