    26
        -50.47523150  Gyration_radius:  2.42163901741 Dipole_moment: 2.932
 S           1.58834137767380    0.37456104738224   -0.89341097949241
O           1.63418705038998    0.09810588715524    0.53009149618705
O           0.36573883764288    1.06756703669295   -1.27752320419076
O           1.82421741054580   -0.79536137725976   -1.71483677147572
O           2.77921100018301    1.37148002056379   -1.17738618569440
H           2.77522384159927    1.37770545159005   -2.12745867294330
H           0.77786532194769   -1.96177606767797   -1.38999484191496
O           0.06533932656779   -2.61910338851420   -1.17667366515655
H           0.32957983552309   -3.43941602821484   -1.59622766985813
O          -1.00085017649170    2.27089558752906    0.69198911475212
H          -0.31113637847689    2.37523231066047    1.37549267518515
H          -0.50815268519877    2.01216094468772   -0.11271015244797
O           1.17640552316946    2.04715650280294    2.27008104415191
H           1.47141277495990    1.37218775721787    1.62439243160594
H           1.31131405851172    1.66257270870595    3.13750165280504
O          -1.69519853831594   -0.57753631337794   -1.75423388507155
H          -0.97831182873774    0.08881474971286   -1.76920305841387
H          -1.23653849719469   -1.43282391353287   -1.70949320632746
O          -0.15381504530983   -1.67291819174753    1.39676161583807
H          -0.14734756112896   -2.25711691646340    0.62011950736726
H           0.58153817939443   -1.04975110758012    1.22456572122809
N          -2.16287318132259   -0.06704894626709    0.78914381786635
H          -3.07013796426091   -0.16541716220318    1.22844954394745
H          -1.78245042834168    0.93248315867070    0.86565468712089
H          -1.44207209858534   -0.73026450087631    1.19482697983720
H          -2.19149014474499   -0.28238925965832   -0.24991797490585
