    26
        -50.43294360  Gyration_radius:  2.71274985107 Dipole_moment: 2.925
 S          -2.20389823432071   -1.25745510874362   -0.53745089370294
O          -2.55807676169312   -2.63297570502420   -0.60732660407432
O          -2.16701643548724   -0.61679412591842    0.73950751122226
O          -3.27989532422002   -0.44221548033974   -1.39297676511541
O          -0.91836515496382   -1.00243940348932   -1.32114531686289
H          -0.74595011731955    0.01406908992409   -1.28613922448591
H          -3.66981352987942   -1.04071179208709   -2.02782307984945
O          -0.21725520325459    1.26979886710426    1.40808246686554
H          -0.99377891260039    0.74203229322064    1.62905984517392
O           1.69478754759496    2.75652506058446   -0.43207561070155
H           0.96798412433902    2.51881810479333   -1.01946715268079
H           1.36385533021189    2.61050867264325    0.46036625286935
O          -0.82157256756819    1.49334003540466   -1.05346146022717
H          -1.75477569432708    1.71227016233965   -1.10084971927091
H          -0.57661206146475    1.47831511060321   -0.05684526325360
O           3.38132606927353    0.63312299643250   -0.83486684002894
H           4.27050972331244    0.91896690410661   -1.04688673538776
H           2.84627109430921    1.44572036786396   -0.74369866524558
O          -0.40316179086854   -2.75094047263889    1.14278526445578
H          -1.00313533470222   -2.13512258960989    1.57302150440555
H          -0.93856536259348   -3.22868231795194    0.50270554492499
N           1.62202082622748   -0.56051274450835    1.20160461198245
H           0.54645740819584    0.58831519064251    1.37312523264002
H           2.24793776040699   -0.35826550404426    0.42576266636892
H           2.19359239281193   -0.73938385575721    2.01747375683988
H           1.11713019989680   -1.41630374650506    0.98751867528363
