    26
        -50.46484738  Gyration_radius:  2.58898746496 Dipole_moment: 2.533
 S           0.52525772479365   -1.20261376275099   -1.92784324969588
O           1.95785312871903   -1.23606196047449   -1.69322260174808
O           0.01726630971534    0.15337788298627   -2.07310395007762
O          -0.21450145406903   -1.97483635046097   -0.94837212941329
O           0.26992614012879   -1.90328745694698   -3.32633910976800
H           0.48327375694996   -2.80382510299385   -3.10843643341112
H          -0.04727172220280   -1.55420275178124    0.62977412498018
O           0.15075446915167   -1.07623089852135    1.47121089913733
H           1.06573746048123   -0.76207612519831    1.35816983012773
O          -2.45441211752423    0.66316396948671   -1.36114963758991
H          -2.76299762581823    1.29732775927753   -2.01046348348537
H          -1.58074801561704    0.34575786793057   -1.69164317717432
O           0.98784656703680    2.04813563131559   -0.43555607672949
H           0.71163536331023    1.49793156458748   -1.19578439286480
H           1.69290655641190    1.53061118163433   -0.01268219124006
O          -1.28129280939312    0.29545604995265    3.54131735812760
H          -0.77347816986485   -0.37890791918522    3.06827301050441
H          -1.51827257288445   -0.08546278578116    4.38717055712687
O           2.50139110767931   -0.04777845628453    0.52533090508940
H           3.42740796149096   -0.19063429319017    0.72703705391184
H           2.33719700686732   -0.51110120018439   -0.34166401540757
N          -1.12172482464529    1.20535218002604    0.89704693953991
H          -0.32253037600315    1.75906264581328    0.47667434971210
H          -1.84020451139555    1.06484263098632    0.15274217829431
H          -0.71187080752298    0.26093990658733    1.13876438351999
H          -1.49914853578436    1.60505979315410    1.75274885854314
