    26
        -50.45846303  Gyration_radius:  2.49012000803 Dipole_moment: 3.696
 S          -1.85923471289945   -0.80305032675395    0.67889740630169
O          -1.94968897281422    0.60296649066268    0.33567064687521
O          -0.51313227289317   -1.16570360838352    1.09696397964262
O          -2.37522159588988   -1.69059143788451   -0.34325230353271
O          -2.79618602567469   -1.00233616014872    1.94785632922267
H          -2.98258405570259   -1.93529364616890    1.91844309891313
H          -1.39076008030136   -1.06573694391604   -1.42483838048100
O          -0.84164812999300   -0.57500007482716   -2.08804222598576
H          -1.47640786926521   -0.16977117834317   -2.68291918815123
O           2.06642674453676   -0.96065216666627    0.48878013248221
H           1.17217178658502   -1.33312710837850    0.62106660194216
H           2.23838695652328   -0.51950393190831    1.33759914266238
O          -0.28354981885171    2.47480744602857    0.90780960855444
H          -0.96904450234010    1.76166731932257    0.78155195112111
H          -0.76461716683109    3.30335310740440    0.90938293399245
O           1.06345354907859    0.55304566542662    2.52944117951837
H           0.73416788023613    1.41481501117979    2.25058963986353
H           0.38710388480202   -0.08021455780008    2.23321963440439
O           2.00177933724575   -1.02191316364348   -2.52625021783596
H           2.32546696271851   -1.46010119125693   -1.73411673766044
H           1.05926221145681   -1.21790707569304   -2.57642313654555
N           1.03806618795127    1.01105040778504   -0.93939054079449
H           0.23551705156735    0.49609665016824   -1.37591113205774
H           1.64477464048000    1.37153251269155   -1.67043816656646
H           0.67033843158376    1.74329975318280   -0.29856129533454
H           1.56515957868951    0.26826819791906   -0.37712896055403
