    26
        -50.46439456  Gyration_radius:  2.54839040207 Dipole_moment: 3.404
 S          -0.21853377192930   -1.97829945367265    1.45862138078196
O           1.18660384371802   -2.30857252274300    1.25782709909278
O          -0.89571748034173   -1.65459925328443    0.21136607611090
O          -0.40291024029368   -0.96025737781822    2.47301660998337
O          -0.91476056931953   -3.30050663917925    1.99072230340619
H          -0.36755383257024   -3.54662516182422    2.73018107596645
H          -2.99518529480780    0.56546745310865    0.54553836351353
O           0.17677544589493    1.27959825019958    1.25482677407963
H           0.07068602019986    0.54950708377669    1.90595253008133
O          -2.16303795109738    0.62622071489779    0.07508096089934
H          -0.69950164627924    1.28941924311790    0.82179037838492
H          -1.76028919856476   -0.27750517537177    0.11209145131549
O          -0.86490328352443    1.43754629858203   -2.26079320207788
H          -0.14461051719929    1.97681253170974   -1.89464230440294
H          -1.48799873268284    1.28558180106324   -1.53529212208346
O           1.11120245467930    2.83332077821938   -0.82549612382947
H           1.06158148973951    3.78981315554084   -0.81321550189919
H           0.86819533189340    2.52536853399548    0.06072483463064
O           0.22199436328409   -0.98931666956268   -2.22077382348647
H          -0.23454187954761   -0.13978571006953   -2.43362842638547
H          -0.34566904247289   -1.44529647929080   -1.57852495555607
N           1.79213446176969   -0.29558204903542   -0.27206838004880
H           1.72844304507755   -1.16124653292954    0.33522846842843
H           2.74937920058752   -0.01273302405004   -0.45109848326501
H           1.26438301630685   -0.53875971759873   -1.18313456505272
H           1.26383476746069    0.45042993218284    0.23569960139223
