    26
        -50.47044465  Gyration_radius:  2.46593320454 Dipole_moment: 2.879
 S           1.74316673128072   -0.28207631608026    0.12662932471668
O           2.49371618538083   -0.30092941739609   -1.09942047264340
O           0.92123142612334   -1.45972445021801    0.34550211175432
O           0.96168166387049    0.93984720409951    0.31472797003414
O           2.81750384482415   -0.24629937119373    1.30426440137957
H           3.59099107281777   -0.63814983377820    0.91168468649895
H           0.52990638463974    1.89613989766363   -1.05471015034027
O           0.10580508877619    2.26546953807168   -1.85365062282830
H           0.73888630566180    2.87463044508400   -2.23630829816750
O          -2.39913140267664   -0.07586150407232    2.50078222724272
H          -2.82824034682453   -0.91088091766207    2.69472353990133
H          -1.44684100198213   -0.20329133949701    2.72503703770874
O          -1.20254098893537   -1.69387080611042   -1.30203493604122
H          -0.48688578353019   -1.94355704495020   -0.69127383155054
H          -0.71956876204439   -1.31889048458442   -2.07576823860245
O           0.42473641980535   -0.30067827053983   -2.85638777954000
H           1.26486017131427   -0.40722525874961   -2.37811214077648
H           0.18348780589296    0.63311876030679   -2.73881102238225
O           0.22045979826536   -0.51810926998911    2.71144735990879
H           0.45191081002215   -1.00434128922705    1.89550181967083
H           0.82751070302654    0.22479970501859    2.73288418311247
N          -1.66592723881258    0.51094973877310    0.00175104644661
H          -2.08359065906780    1.26889196313041   -0.52907820525402
H          -2.14108960962731    0.35003630966585    0.92270914308570
H          -1.63751589000078   -0.40271378821682   -0.57179731533898
H          -0.66452272824792    0.74271580050662    0.19970817197343
