    26
        -50.46169774  Gyration_radius:  2.48893889649 Dipole_moment: 4.378
 S          -1.00218943763797   -1.99154078964192    0.00655713229884
O          -0.76342225137179   -1.37271516676049    1.30540231745594
O           0.10383260482079   -2.75807067509856   -0.48901521445486
O          -1.47820857054892   -0.98681173826004   -0.95112253277524
O          -2.21541281801640   -2.98365722718527    0.22334951639711
H          -2.84338119849429   -2.42724043894024    0.67342775422913
H          -0.39657233005197   -0.26161627607917   -1.84681087800792
O           0.28596610014909    0.26661527541747   -2.34421485070362
H           0.12164610597837    0.09941632399423   -3.27339179721201
O          -2.42158304142758    1.17713697304296    0.35061071057686
H          -2.23091023787135    1.89897586248443   -0.25285692728792
H          -2.16689456747663    0.36546569687184   -0.12464992633994
O           0.08203359135301    2.44558117641284   -0.79744112511575
H           0.12179146945413    1.70518034242792   -1.44005196513491
H           0.90831533341822    2.92304564584126   -0.89065862617511
O           2.65914994683188    0.33687728047693    1.59314848589942
H           2.91293393278971   -0.33895462301604    2.22374743241223
H           2.54254309961244   -0.14165034739660    0.73127544025557
O           2.08405104753124   -0.97469563811252   -0.61407751592410
H           1.48267896122551   -1.73748151990938   -0.50310751943287
H           1.68704800413520   -0.45572839608912   -1.32813151173686
N           0.10631691370103    1.06345374706848    1.56282931693976
H           1.13535389016297    0.89869818646907    1.71610063108981
H          -0.33629296758062    0.10083062428873    1.43672883079036
H          -0.34381032402801    1.53013748897187    2.34265446254712
H          -0.03498326664859    1.61874821272342    0.68969837941420
