    26
        -50.45623618  Gyration_radius:  2.64968647712 Dipole_moment: 3.060
 S          -1.18700288747116   -0.39515336501150    2.30863733163859
O          -1.62988998638152   -0.49003086616893    0.92476613195499
O          -0.39544086503037    0.81277673572180    2.53623519258332
O          -0.52578850145535   -1.58530706821563    2.79672040950127
O          -2.51132018307312   -0.22742236743594    3.17166607276518
H          -2.20000971644758   -0.37091893551588    4.05995245251845
H          -0.01277478289255   -2.50918400366936    1.38496816835583
O           1.86544687627488   -1.00901024123141   -0.42963043074473
H           2.71164700374331   -1.42175657378036   -0.25458881202323
O           0.39337382576071   -0.45451162334686   -2.66799700973972
H           0.99681773580679   -0.68540296744187   -1.93649855314244
H           0.16356035908517   -1.27752776433097   -3.10133114219554
O          -1.37928524570537    1.11111742296562   -1.19273701442155
H          -0.99618920346435    0.49840762278610   -1.84246796536293
H          -1.71849384908530    0.55530192594959   -0.46368079102256
O          -0.04304686851161   -2.52717285691988    0.40800813931941
H           1.16115030266231   -1.64144409443868   -0.08078556878177
H          -0.80342591665795   -1.93904492132343    0.25058828423923
O           1.09173717922254    2.35131918031538   -2.31592863500296
H           1.02365124860203    1.46028142162404   -2.67833787014592
H           0.22507142662661    2.74483364528496   -2.43984240459251
N           0.77732463812360    1.41763265030039    0.31924172262608
H           1.34621089485945    0.59199798670290    0.06371176494620
H          -0.03960116724560    1.46723639932482   -0.35908053614903
H           0.35431384519805    1.25772402758230    1.28831093306616
H           1.33196381748056    2.26525863029281    0.25010011975224
