    26
        -50.46861487  Gyration_radius:  2.46028375605 Dipole_moment: 2.069
 S          -1.36627810273396   -1.74688836554176    0.12405077497892
O          -1.26310754133117   -0.85317551687669    1.28028105279056
O          -0.39119718259668   -2.79345278488221    0.13240099118793
O          -1.35142335955857   -0.96886970155945   -1.11968384048943
O          -2.80522893213611   -2.40043220798960    0.22155344265077
H          -3.37514768185283   -1.68827786502553    0.49832386867825
H           0.26767926848625   -1.14026900825966   -1.45406420410080
O           1.24649102935526   -1.24286993758202   -1.46641316092784
H           1.38743851806048   -2.17772813866826   -1.63464070989275
O          -1.22784712436521    1.64055248537618   -1.36100950185826
H          -1.73198443194526    1.88905794680954   -2.13694264384438
H          -1.31990114700257    0.66318632996934   -1.26929864476131
O          -0.90775640432851    1.87673043402536    1.40103578215193
H          -1.10610715727972    2.07192655518636    0.47415752377650
H          -1.13359700033360    0.93890840759644    1.51226452573091
O           1.75449207404031    1.76494401075683    1.30384020900439
H           1.84980233610424    1.89985150135454    0.33374500126613
H           0.81496550337705    1.99800083203694    1.49405576120533
O           1.54183670361280    1.61201630209772   -1.35745349111255
H           0.58302430656863    1.76341346887493   -1.42621905940492
H           1.67541076509230    0.68985151348898   -1.60457302421262
N           1.39239214429201   -0.77691726100065    1.22754943504918
H           0.37003035844551   -0.88038122459978    1.42832268999907
H           1.65142057459969    0.28792685765230    1.34807787944019
H           1.93516314013387   -1.38913389388915    1.82647501990551
H           1.50942935327629   -1.03797073937864    0.22416433281678
