    26
        -50.46772925  Gyration_radius:  2.50178947418 Dipole_moment: 4.360
 S          -0.88674213946119    1.18554860842215    0.25390096460100
O          -0.18323824410580    1.52976237104426   -0.97324100252309
O          -0.12978989574831    1.61337610782771    1.41272563887985
O          -1.15717938124411   -0.26282216887886    0.30155397981165
O          -2.26373082611936    1.90795544233989    0.25161984630928
H          -2.75620124434282    1.45879938734582   -0.47615832089441
H           0.06355080009771   -0.97759631555627   -0.61845709233864
O           0.88744236995722   -1.16466424912816   -1.11600447145398
H           0.67780374559077   -0.90628988918594   -2.02180706401732
O           2.31047794924505   -0.97227542296096    2.77911182962836
H           2.16792767695027   -0.43185835529878    3.55882940831976
H           1.43947720366478   -1.40687849690761    2.60073007554871
O          -3.02147742742406    0.19509109800305   -1.60089604808945
H          -2.39804106743990    0.18047903818068   -2.34895460975019
H          -2.62232141203506   -0.39093035290904   -0.94259001762095
O          -0.08918015697985   -1.88925980007657    2.13083454198525
H          -0.09367144355830   -2.69792059371129    1.61451298729609
H          -0.54495485635380   -1.22009232862977    1.57920355931117
O          -0.70929917744138    0.23171575256371   -3.14574749280957
H          -0.61852055115297    0.81073629988017   -3.90374714414956
H          -0.47902354416943    0.77994606362523   -2.35335548302493
N           2.11091316331652    0.49572124311794    0.59238918284784
H           1.28141902628170    1.07665566819321    0.90496716310368
H           2.86914045091372    1.08830493174128    0.27192627953353
H           2.37915756685227   -0.09674924849800    1.43066974611168
H           1.76606141468975   -0.13675479047579   -0.18201647667761
