    26
        -50.46906633  Gyration_radius:  2.46893722137 Dipole_moment: 4.270
 S           1.69814959109778    1.35086201706002    0.08908557105799
O           1.33805737195538    0.38546263207237    1.13169438869919
O           1.12274460751963    2.65521021734855    0.32068565598829
O           1.46588987170915    0.80918874652669   -1.22946372138800
O           3.27006226162495    1.54941282969162    0.21889893407918
H           3.30995265562274    2.28935861848057    0.81555982638613
H           0.93291548379837   -0.56378494067891   -1.83601171608680
O           0.57850149462696   -1.44114025730113   -2.13380196442806
H           0.91549854314756   -1.57767253413372   -3.01998902469889
O          -1.20689906199901    0.64539761287751    2.10068265655735
H          -1.53932720864766    1.24147799358446    1.41494891712480
H          -0.24812402556226    0.60855804668351    1.94341023415083
O          -1.31570563985532    2.01087583880342   -0.33214746236357
H          -0.39171032737860    2.27919709415712   -0.12276306333473
H          -1.71927793517577    2.76051233850538   -0.77358334630442
O          -1.93090113546027   -1.69943737226539    1.08234023502494
H          -2.18559640705111   -1.35556055667157    0.19391248504956
H          -1.81962899959936   -0.88675105858122    1.63233444527272
O          -1.97069003022046   -0.51528237171167   -1.29950945115602
H          -1.76009077670654    0.39410041757494   -1.02895076214469
H          -1.17899724211251   -0.85170882419201   -1.74231186930390
N           0.54857353616501   -2.04730906111881    0.51724664058962
H          -0.51682555195201   -2.01581149786342    0.80556286372732
H           0.60675629068625   -2.11587916047365   -0.51090380203612
H           0.94933927336923   -1.10745033546447    0.78938374329135
H           1.04733336039971   -2.80182640295337    0.97368958625491
