    26
        -50.47523122  Gyration_radius:  2.42139079271 Dipole_moment: 2.930
 S          -1.27824908404039    0.89479073239644   -1.01731053014693
O          -1.24249118491552   -0.55490855924179   -1.05944553383936
O           0.05044472741121    1.47212510158444   -0.86083121927321
O          -2.21040181532182    1.41860064985466   -0.03991806561671
O          -1.80181960626120    1.35404095894031   -2.43414202147125
H          -1.90666538051286    2.28650802103900   -2.28496941851315
H          -0.95814010790501   -1.11223770154355    1.82868824429151
O          -0.52778616103045   -1.73335368358198    1.21752598617243
H          -0.84783875636581   -1.45117295035123    0.33622885078016
O           0.43098599938586   -1.79387072717869   -2.70237706569471
H          -0.27004866793611   -1.32829978186506   -2.20091792319643
H           0.25571227428648   -2.73030864913799   -2.59757065654125
O          -1.60326821660083    0.54490108921543    2.32135268987175
H          -2.31746098565823    0.75626138168180    2.92471194596251
H          -1.89167986526050    0.87536001001331    1.43083534554538
O           0.84699732997453    1.64084245854008    1.69234852178288
H           0.58994808812394    1.77878076971349    0.75793035603017
H           0.02365357900552    1.38481887644610    2.14009338090399
O           2.13026429342721   -0.11846942361160   -1.44456697084755
H           1.45718142443758    0.58667601805655   -1.36188919196074
H           1.71083527152911   -0.78789759316521   -2.01898276833539
N           1.90103563702860   -0.69926174141092    1.09228836968660
H           2.11552337751709   -0.56099222782785    0.05090446255996
H           2.67877058477230   -1.11422365662173    1.59102110491970
H           1.65129160298739    0.26387104037863    1.46231172641228
H           1.01320565192331   -1.27258039233131    1.17668036052181
