    26
        -50.47071352  Gyration_radius:  2.41591510863 Dipole_moment: 4.131
 S          -0.43667345260821   -1.96670421362707    0.23202832478487
O          -0.91465687445720   -1.34508116642336    1.45605815257174
O           0.98380282585484   -1.83227832831432    0.01592678146724
O          -1.20989019532701   -1.52647528869671   -0.93085439631889
O          -0.71975181088972   -3.51620176994595    0.39282534836975
H          -1.59281490737860   -3.52521671273313    0.76955733186802
H          -0.10344707272732   -1.04388699808957   -2.05043377764358
O           0.73073211950594   -0.75821360502555   -2.49049662646141
H           1.38594366367447   -1.35540981950943   -2.11239926062076
O          -2.58890431875955    0.35079296686733    0.25574895522974
H          -2.26803587949370   -0.27421166102509   -0.42485983722564
H          -2.29594752365117   -0.08627751579095    1.07033876664510
O          -0.93047879820322    2.34693223361911    0.14075989022503
H          -1.42597967107353    3.16511824711275    0.09223561786492
H          -1.61065312827773    1.61061499575832    0.14579376232191
O           0.33605922933350    0.90101765538463    2.28394691053207
H          -0.11215245355414    0.04798378727663    2.12609727609850
H          -0.12060381450098    1.54723079614479    1.72903451959786
O           2.44106628958507    0.24357083649721    0.82837618521950
H           1.84850753544154    0.54202801651453    1.55872445243456
H           2.09858139618191   -0.64512881555710    0.60303453603320
N           1.30198141229740    1.45089767435158   -1.15588174174573
H           0.44225768600969    1.87243089713316   -0.75477627512676
H           1.84325238428355    2.14377916075017   -1.66042059880701
H           1.87495367280244    1.01893027433353   -0.33326556891816
H           1.04285168593408    0.63375835299541   -1.78709874839620
