    26
        -50.43619304  Gyration_radius:  2.73951722952 Dipole_moment: 5.101
 S          -2.17594831930957    0.02274413398112    1.95495999489679
O          -0.75469088555449    0.28445462146261    1.88302932634118
O          -2.77997994708503    0.07862879882647    3.22919838602008
O          -2.41991643379794   -1.36648718327753    1.27145629732327
O          -2.90225505896815    0.99540366307492    0.99548840568206
H          -2.73251795677588    0.69999906786338    0.05749429490326
H          -1.54043376726365   -1.70843469359430    0.94862807085673
O           0.21676695754799   -0.14176026546900   -1.81969531181410
H           0.38131295481410    0.17422209389990   -2.70922864820631
O           2.63608918671235   -1.32365123015676   -0.88811040763851
H           1.88409538992810   -0.97970599731119   -1.39456434387578
H           2.25708000459241   -1.89875954365747   -0.21640695641610
O          -2.41646275605662   -0.05040828432281   -1.32454188936676
H          -2.73713719540643   -0.94810352338537   -1.20870366021261
H          -1.46149604828799   -0.10537297339515   -1.56145070019674
O           0.00169698495031   -1.76973786070079    0.44011876713146
H           0.12015564289412   -1.02244138528437    1.05625765764889
H           0.03783244240853   -1.37975899463690   -0.44656895091085
O           3.47867390654363    1.08014843372656    0.13892813346500
H           3.31937967012797    0.20250553884535   -0.25865864306014
H           4.18951630132184    0.96784593987189    0.77061733275652
N           0.68381109658397    1.71748839323183   -0.14333037256896
H           0.42528813357436    0.67005106184133   -1.16972420864939
H           0.20942325987930    1.41800970556369    0.70718632087091
H           1.68672503872952    1.72042285672978    0.04109167323134
H           0.39299139785419    2.66269759631260   -0.35347055823133
