    26
        -50.46980453  Gyration_radius:  2.40738172463 Dipole_moment: 3.197
 S           0.34251406719320   -1.01864556600255   -0.93982616784625
O          -0.12339049057537    0.14790204213857   -1.67298666102230
O          -0.74833166094352   -1.66897112671010   -0.22225236570529
O           1.42970643949894   -0.64422593877548   -0.03860509411679
O           0.88791207939963   -2.06348771903299   -1.95720310915027
H           1.63694034234071   -1.58654752645615   -2.36803740542933
H           0.91695255899475    0.05288387900328    1.39613626032951
O           0.41364122691921    0.37061524279827    2.17940026479275
H           0.24977874707311   -0.45085530980246    2.67408274182431
O          -1.92398259312835    2.10251104158650   -1.01622572466395
H          -1.51878711799078    1.43649578952204   -1.59702755755132
H          -1.17191343200318    2.66352255138266   -0.76173310367307
O          -0.32326792776194   -2.23414459130336    2.39012405860199
H          -0.47900491192777   -2.15813787868215    1.42862946845292
H           0.25172008391470   -2.99180077049112    2.50535631969465
O           2.66386649580901   -0.15613624661477   -2.36457716288234
H           2.14005313810583    0.58355182337221   -2.68534162611480
H           2.56108333097947   -0.16036540648481   -1.39850782575222
O           0.67658495241539    2.33390551623653   -0.23037569287659
H           1.02524116478175    2.09042153627144    0.63020637906844
H           0.57962863853817    1.50771899898844   -0.73420818747023
N          -1.92882449226345    0.37958749392129    0.97189806498121
H          -1.06249764574256    0.56227034970633    1.56602923154383
H          -2.05500511318907    1.15164844878847    0.24477371007104
H          -1.68637165861375   -0.49958018306046    0.45277797977637
H          -2.75424623182108    0.24986357966175    1.54749322512983
