    26
        -50.46203253  Gyration_radius:  2.57080135381 Dipole_moment: 3.176
 S           0.31262080498602   -2.00731742347876   -1.43479173289527
O          -0.95934799767765   -2.29390902837291   -0.78425372822598
O           1.40381362607040   -1.83798117278214   -0.49489026836562
O           0.20744542552586   -0.88847688459133   -2.35830375388851
O           0.66165667815270   -3.29080352708198   -2.29516199050719
H          -0.16952301815257   -3.50533918455684   -2.70711890820319
H          -0.60502480865692    0.41167947682957   -1.84752908713419
O          -1.15164274451622    1.12222207881615   -1.42493790130111
H          -2.00961601161366    1.07429056799609   -1.84870197792378
O           0.20987899423277    2.43538413352746    0.67502531699356
H          -0.34993170513452    2.59276171530778   -0.09181695421439
H           0.94118823469284    1.89098054489528    0.32740532624827
O           1.94385400636704    0.77447946936459   -0.66250913622467
H           1.81988337331518   -0.19549952643166   -0.66046073798081
H           1.81638598287513    1.03174809323674   -1.57791665335346
O          -1.68006000043720    1.70816527462935    2.55381735549261
H          -1.64078038407606    2.20699162953303    3.36957698646650
H          -0.97147800049933    2.06248480525986    1.98288550392620
O           1.46940035169113   -0.63885965542257    1.90284496902429
H           2.03883597983341    0.10716386783966    1.69274121959686
H           1.62046516170649   -1.29035908789763    1.19360030771820
N          -0.99870743003104   -0.30163042356989    0.91013936887174
H          -1.00981783103257    0.43704494479914    0.17500627982831
H          -1.14618895180097   -1.21131950842378    0.40611391032992
H          -0.05510553666552   -0.33287019412535    1.38271958898338
H          -1.69820419916221   -0.06103099529969    1.61651666673582
