    26
        -50.47468851  Gyration_radius:  2.41758534644 Dipole_moment: 2.071
 S          -0.50153382001056   -0.99695836301388    1.31348192192458
O           0.92843758288525   -0.74102106235103    1.11980327051689
O          -0.92700195919539   -2.21676327924106    0.68845799368124
O          -1.28387586281839    0.16463892069999    0.86424174349096
O          -0.73407288008127   -1.11603017239267    2.85529855467024
H          -0.52414020703595   -0.22365989199521    3.17650638242706
H          -1.46618719198382    0.35293786257904   -0.73165368264362
O          -1.53983067375423    0.45832915861331   -1.71252230116262
H          -2.40210239261237    0.84350760952778   -1.87522742314148
O           1.03269309350023    1.44732369781206   -1.94486081542581
H           1.18792689025363    1.80730814998053   -1.04851838168572
H           0.07632165826765    1.27963310765818   -2.00073542033196
O          -0.66256536573262   -2.15613910777795   -1.96629736068343
H          -1.13878897593024   -1.32482036645945   -2.12787482482350
H          -0.85489784873033   -2.37635072700572   -1.03101514094998
O           1.37250318652333    1.86677676551967    0.70588256837818
H           1.29024912898825    0.91769182603054    0.92204938244968
H           0.94238220498909    2.32353656136289    1.43329350371984
O          -0.58931317760027    1.58842428092753    2.90686878447965
H          -1.33596134142628    2.00809370653510    3.33868420724876
H          -0.92023074725945    1.23274694236042    2.05063658317476
N           1.64383080838853   -1.04282520364297   -1.40256808850137
H           2.53962260177751   -1.44511578900468   -1.65231551090875
H           1.53879217915927   -0.03218003498407   -1.74109807324178
H           0.82072249837803   -1.60408281707256   -1.78025089061855
H           1.50702060962873   -1.01500178590736   -0.36026699324833
