    26
        -50.46433749  Gyration_radius:  2.51936236558 Dipole_moment: 3.776
 S          -0.03865366018990   -2.15336801449523   -0.46845897029961
O           0.54835437660055   -0.94047129125382   -1.00977648045833
O          -1.47579966375251   -1.99965256669191   -0.25395719184456
O           0.63859837803395   -2.63642840602962    0.71554541728799
O           0.13920226866183   -3.26071900117437   -1.58389903194352
H          -0.07651845551764   -4.05249175087035   -1.10247688766675
H           0.79536559761037   -1.54068228621557    1.99522375117585
O           0.69922240250974   -0.71919134620127    2.52737858065601
H           1.23967003997672   -0.05508610316586    2.05969065210301
O          -0.56195638477306    1.24288763877447   -2.08903820291107
H           0.29261636942544    1.69206804910219   -2.24895294338219
H          -0.30720273338840    0.32913182132916   -1.85817347353384
O           1.45089487001672    1.01071623531714    0.55111525389966
H           0.65700551200139    1.56443907439855    0.59755599202646
H           1.20533179699287    0.24883085863971   -0.01810761937517
O           2.04112018934370    2.05956007962564   -1.94828612519506
H           2.56123532388131    1.39266145917131   -2.39989043745030
H           2.06267014402212    1.82155114122701   -1.00297818835098
O          -1.13673624640834    2.13014808942066    0.25947412264301
H          -1.55329564349343    2.98951512735039    0.19223784223265
H          -0.99204060253794    1.81226616939705   -0.68967585518176
N          -1.66394515550410   -0.17470304093373    1.56927484998408
H          -0.74831134131841   -0.35646318169199    2.10760205832092
H          -2.47374264968481   -0.24016662924211    2.17603405040198
H          -1.60595349079157    0.76108167448780    1.11469918703365
H          -1.69713125178054   -0.92543379035341    0.80783963983023
