    26
        -50.47163241  Gyration_radius:  2.41169006252 Dipole_moment: 2.531
 S           0.13892747677569   -1.49366371926056    1.25363489509406
O           0.34626714966514   -0.45842563673575    2.25285454180331
O           1.36527339064043   -1.99471023438070    0.67406619646970
O          -0.83985116398503   -1.09237336184992    0.25552086960678
O          -0.53234388019252   -2.72008625074916    2.00965115943680
H           0.18942622200201   -3.08351660773581    2.51272892496246
H           0.16919527885664   -1.20592600042460   -1.10767451571436
O           0.69756589157747   -1.14187816298137   -1.92874957772613
H           1.43587559744947   -1.73720971641139   -1.77894777261654
O          -2.07060082016030   -0.08607471255647   -1.93552249489834
H          -1.43205028583291   -0.42476102412904   -2.57196139653067
H          -1.89142956654983   -0.58821214098819   -1.12228196094310
O           1.50566728168757    1.37457364562843   -1.32457002946777
H           1.31409904000746    0.50645990781904   -1.73513753898534
H           2.00796711426341    1.15291057093896   -0.50636303657145
O          -1.53857629166769    1.26377661241618    1.74584155206734
H          -0.79749052828586    0.66758058437578    2.01361415169889
H          -2.29561610875329    0.68120437829775    1.65142616634309
O           2.54377017107744    0.38235482825149    0.91461953333983
H           1.96925448281681    0.55231986283119    1.67121769575876
H           2.38612395856700   -0.56190224484371    0.73529319883671
N          -0.94301172290668    2.02933056997160   -0.73811075582891
H          -1.14044646343857    1.80867759894409    0.27687876034792
H          -1.20766537726164    2.98217235389304   -0.96084428943158
H           0.10175197654766    1.85549311007608   -0.94627073721179
H          -1.48208281290095    1.33188576960364   -1.31091354984066
