    26
        -50.46899110  Gyration_radius:  2.48386456938 Dipole_moment: 3.354
 S          -1.31812277685005    0.73040732858630   -0.35514205344025
O          -0.01825693540489    1.24978644107181    0.12270975945046
O          -2.17993694072691    0.38565335894930    0.74770898070029
O          -1.08982065879886   -0.39201742961553   -1.26357404508054
O          -1.98684372634864    1.87746862955167   -1.16066024467864
H          -1.34598031285003    2.09774132222851   -1.87679140636408
H          -1.23567653312893   -1.72494821759224   -0.26796527680384
O          -1.20612066822349   -2.28681352060735    0.53933467526814
H          -1.97401485133768   -2.00962907351634    1.04821517018059
O           2.88597669389816   -1.36052462442471   -0.14068201653942
H           3.01192949608905   -2.21147030013298   -0.56326157315335
H           2.51035566209984   -0.76411215387196   -0.82468587867580
O          -1.08463981649258    0.03452125115295    3.18120643860561
H          -1.61702004018940    0.49338409813329    3.83169858080935
H          -1.51964347854917    0.20523416909697    2.32115339952852
O           0.01419404813970    2.38368023314213   -2.82505913607875
H           0.62316132566847    1.63024086623726   -2.70963784721408
H           0.45778186960481    3.15106276182847   -2.45620460535856
O           1.42033244158200    0.23637841294867   -1.78551466597523
H           0.63658741369671   -0.31723512627775   -1.95204445493337
H           1.11137909039158    0.76515708169116   -1.01539071786649
N           0.80844148363180   -0.84668697394036    1.50158145346971
H           0.52944825678174    0.06942315978529    1.05706718692611
H           0.76665374091101   -0.72534110031489    2.51293732599876
H           0.06399871313300   -1.54432511539679    1.21127936161576
H           1.73583653328118   -1.12703547871098    1.12172154955503
