    26
        -50.47008324  Gyration_radius:  2.50914961398 Dipole_moment: 5.861
 S           0.62831237534877   -0.09616136510669    1.03715607616069
O          -0.25148737887017   -1.19223941387527    1.36270275769831
O          -0.15457067001353    1.14776439931114    0.86551521657198
O           1.41129542930304   -0.34843311577108   -0.17335566891235
O           1.60417535360312    0.13183410775007    2.20964186896914
H           2.37429487059130    0.61953233798331    1.79222545963480
H           0.55420459417858   -0.59926810771769   -1.48757709442431
O          -0.06227726031286   -0.71283554706830   -2.26195308171144
H           0.43392493972894   -0.44548009227717   -3.03707450966343
O          -0.80196133596642   -2.96771322210829   -0.64527129774349
H          -0.37605227772232   -2.51310654247164    0.10234701094027
H          -0.52219597341172   -2.48483040548766   -1.43122155699723
O          -2.83640193107632   -1.76478455855658    0.59305698908661
H          -2.36609384208694   -2.44540732238581    0.06303605580432
H          -2.22638625511550   -1.61464505960386    1.33071331149423
O           1.42135554675364    3.21051165497402    0.36995530815407
H           1.29308316560317    3.83666129516413    1.08457222348449
H           0.77647620115526    2.48520170150663    0.52384413720375
O           3.31184022336125    1.32503946065326    0.71246773130211
H           2.98085430663991    0.69303241790928    0.05618197458073
H           2.83304904277364    2.15994108890191    0.52714156857807
N          -2.03010278782747    0.33305144219462   -0.73803932588808
H          -2.71505069560225    1.00834114488578   -1.06007963037452
H          -1.44904978831069   -0.03288565137521   -1.51973313024164
H          -1.34280183401533    0.76721505818926   -0.04834298829463
H          -2.48843402880682   -0.50033569568449   -0.22790940538816
