    26
        -50.45796760  Gyration_radius:  2.80278909091 Dipole_moment: 4.633
 S          -0.96892186271497   -1.72383877450491    2.12152101294895
O          -2.07051365404791   -0.89841219821677    1.62678594551661
O          -0.11816607250207   -1.07304247771384    3.07147877804959
O          -0.21159604707985   -2.28229952204352    0.98761492274149
O          -1.66847778910800   -2.95851152042368    2.83630821568428
H          -2.48924512521038   -3.05303946810989    2.36139973256121
H          -0.38703355383304   -1.88464076487893   -0.58285681200849
O          -0.45398492981192   -1.51460479020594   -1.49936590396866
H          -0.76885121946342   -2.22663209945929   -2.05636463861219
O           1.24045157743682    2.45001554997980   -2.25811439791414
H           1.48562248229138    1.51132172569095   -2.08108188741197
H           2.06869772661073    2.91988812076943   -2.36162454842953
O          -0.66567934060889    3.28748947769951   -0.59538195589331
H           0.07128275635493    3.08839681651919   -1.21822462099907
H          -1.34623452897406    3.72302066617742   -1.10992359724932
O           1.61911378520526   -0.38426540321418    1.12705523448724
H           1.12510831925255   -1.22980038581494    1.04990382781072
H           1.62763593564170   -0.23064033644373    2.07866111888195
O           1.90903623958666   -0.06576166044323   -1.64254196361051
H           2.15207335602121   -0.15151194549998   -0.71141819348844
H           1.16052388730574   -0.67154675070758   -1.76901469478058
N          -0.67263766237213    0.69950129349006    0.12276939009268
H          -0.72894294037852    0.19988079293397   -0.77356538331655
H          -0.82062764623638    1.72423228462286   -0.01713740044376
H          -1.36416555064700    0.22902427975087    0.77284174408620
H           0.27553184725245    0.51577709005427    0.52027608527906
