    26
        -50.46416345  Gyration_radius:  2.40524994591 Dipole_moment: 4.311
 S           0.42857100286599   -0.69304997619656   -1.24843845587916
O           0.38612943438400   -1.13117315868995   -2.61360411245957
O          -0.83058058808328   -0.88120407141879   -0.52994273645050
O           0.73266417389974    0.85572045139909   -1.22012004057983
O           1.54051349295130   -1.25952454461886   -0.47434573515899
H           1.98219960653956    0.18827814632540    0.42048116012441
H          -0.15265688783140    1.29682902898747   -1.22729802988181
O           2.12755965156271    0.80706273350950    1.16426516696240
H           2.58425587567562    1.56081550564943    0.78679627036286
O          -1.75985948986846    1.53052557267732   -0.97963430137353
H          -1.99458918854834    1.52322503945942   -1.91998326867747
H          -1.76034465613616    0.58419844550091   -0.73122255553386
O          -1.30767703803849   -0.90925303746523    2.06381705637104
H          -1.36660495401358   -1.04556995547325    1.09446976754865
H          -1.18521127634319    0.06665355599644    2.14404809056485
O          -0.50991487682519    1.59874145752032    1.71586829600600
H           0.42396334900903    1.43337470877284    1.49734309633055
H          -0.94598241807246    1.88212554649079    0.90435003778707
O          -1.50149639287502    0.51680861349731   -3.46073804837283
H          -0.80715050750237   -0.12651687425592   -3.20377054091990
H          -1.72146837658001    0.31356445336314   -4.37088981526255
N           1.14517374667261   -1.64724766944282    2.06678983370521
H           0.07729823065552   -1.40119815654754    2.19835111696916
H           1.30040582115216   -1.64684735221251    1.00836345214248
H           1.71178604436701   -0.88106444566698    2.43246298172754
H           1.40301621097557   -2.53527401715071    2.48258131393976
