    26
        -50.47328341  Gyration_radius:  2.39680786652 Dipole_moment: 4.192
 S           0.02846835676574    0.88384673081932    1.46642806207260
O          -0.14478206877042   -0.56799158234255    1.38762709471342
O          -1.25351420077619    1.55837106126618    1.54163391982191
O           0.82074626781911    1.36402305540353    0.33019952830703
O           0.82342965534687    1.19406447766879    2.76104738465650
H           1.73211739730302    0.87882968668920    2.54039131782289
H           0.23598128763460    1.33374269474199   -1.13537951924868
O          -0.19495666232556    1.28737328062710   -2.03315531728134
H           0.22682353623366    1.96472470651137   -2.56386420933718
O          -1.88876504100802   -1.67751446640317   -0.30696422157616
H          -1.35053635069860   -1.45688873595308    0.47892427551278
H          -1.21844003484039   -1.80774486685770   -1.02138201479064
O           0.18494963737646   -1.52391936209906   -1.96742411083696
H           0.14949235197531   -0.57656141069728   -2.16202709954931
H           0.91207090912207   -1.64234745150497   -1.33237497016285
O           2.98489534801711    0.37674493334218    1.51943122977082
H           2.53464948186885    0.91361447606310    0.84787006266276
H           2.90503573046197   -0.53152848219327    1.18714758182601
O           1.82760021841576   -1.83581115789801    0.27703196602596
H           1.07444236171337   -1.36914164799252    0.72035487735573
H           1.79211469132691   -2.74535775739586    0.57853080925918
N          -2.47023296709293    0.81402359865203   -0.63977001995248
H          -1.81085238449380    1.11536450928230   -1.37980732993697
H          -3.41818280634337    1.12615086252826   -0.81803874902286
H          -2.38860040800933   -0.26931874472431   -0.55779232005469
H          -2.09395430700012    1.19325158245660    0.28136178194986
