    26
        -50.46218133  Gyration_radius:  2.4569403019 Dipole_moment: 6.732
 S          -0.25814108476611   -1.54491703185832    0.59443249820082
O          -1.62136058113368   -1.07423100611525    0.79728552783205
O           0.69500396888817   -0.82199573668339    1.42520667170126
O           0.11830828445891   -1.47462374758185   -0.81714561251283
O          -0.23151963658162   -3.04657853027685    1.01972129323470
H           0.70050243740081   -3.29341662349615    0.85548063861804
H          -0.37986575695220   -0.34747422877989   -1.81436272301893
O          -0.65845739744215    0.38954530516143   -2.42615898783746
H          -0.87756974795711   -0.04028994781380   -3.25440940810860
O          -1.51910839206646    0.89573534907904    2.74165899190547
H          -1.65063730745413    0.04516722279701    2.30036528119707
H          -0.59340644522769    0.90987553651219    2.99390842096976
O           0.85745903674991    1.71928710034481    0.71571713668418
H           1.36041357266326    1.72553391839992   -0.12182663899658
H           0.92782260658552    0.80336682083856    1.06504468790479
O           2.28149469081407   -2.72065399063986    0.27519256923952
H           2.28772092090121   -1.98905450631194    0.90633318063680
H           1.87100617298449   -2.35289324708926   -0.51957039335424
O           1.72793737734073    1.65750343475743   -1.85725079831881
H           0.93777852306737    1.18752000500126   -2.17957631503297
H           1.83778238713236    2.43720906209208   -2.40320399337726
N          -1.59200180338183    1.41443226704007   -0.07429172766247
H          -1.54894473616129    1.36149137661307   -1.09934821049031
H          -0.60950204349085    1.68611271419770    0.30839217504583
H          -2.30971750373336    2.03872927941829    0.27938083629601
H          -1.75299756263737    0.43461920439237    0.28902491924228
