    26
        -50.47002096  Gyration_radius:  2.41705751673 Dipole_moment: 6.740
 S          -0.49770592172618   -0.78792601968200    1.40428253839351
O           0.54468931792773    0.24789860984595    1.42370816900028
O          -0.95619645541684   -1.13858556912835    2.71767234123581
O           0.20511954360157   -2.05897054075175    0.75483951108585
O          -1.55517207031509   -0.43242564281947    0.46871984268176
H          -1.55333758237038   -0.35616191700693   -1.10796761079370
H           0.85295801581844   -2.27939589392742    1.45898566815786
O          -1.53864137795532   -0.22179314780346   -2.09624408990848
H          -2.38821731602437   -0.53084052157948   -2.41366303797813
O           1.88934687741270    0.71995655745054   -0.81027918291590
H           1.75890030321502   -0.12993330184815   -1.29171907673365
H           1.53927386276360    0.55144856958708    0.09276876435950
O          -1.11057387931950    2.23331272711581    0.90585302236407
H          -0.38888864274448    1.66918353257715    1.25925718941394
H          -1.86497315369357    1.63243470644476    0.89707476167679
O           1.54673554382473   -1.90210673283921    2.99017089442560
H           1.97547092930728   -1.04826675835406    2.88012872321730
H           0.63064090381585   -1.69408554069793    3.25740581256331
O           0.93187509720984   -1.52491299048155   -1.87694460926477
H           0.08628337035646   -1.19460150355664   -2.21449815356825
H           0.72370776890068   -1.93998505035799   -1.02675444741654
N          -0.17537230843489    2.06736497790464   -1.56423626627905
H           0.78088444452610    1.59106193232571   -1.33230602575531
H          -0.59984024969347    2.30174746019909   -0.61905712355357
H          -0.06905676762510    2.88507027833280   -2.15301329879557
H          -0.76791025334548    1.34051177906048   -2.00418431560979
