    26
        -50.46065102  Gyration_radius:  2.5274500801 Dipole_moment: 4.580
 S          -0.68923154101518   -0.24708022550803    2.22234176942679
O           0.55387394811130    0.48174463389974    2.44384349730590
O          -1.31842797711391   -0.76120195728300    3.39297315999109
O          -0.20953431446844   -1.58453658065613    1.39990456942871
O          -1.54602688365712    0.43875248393004    1.26734384966069
H          -2.30594885543621   -0.69393863069841    0.32089769223279
H           0.04333904280139   -2.10870630210590    2.15205042803094
O          -2.54177812039867   -1.39665337289847   -0.32610089774474
H          -2.16268353636967   -2.20348262926989    0.02900706246655
O          -1.14779514044386   -0.42044466468896   -2.34105283930656
H          -1.74110157800653   -0.81056281232562   -1.64641695448173
H          -1.58748118285585   -0.55077993371058   -3.18173847761780
O          -0.94617740940716    1.90682862961659   -0.88691473961359
H          -1.37110285749926    1.51080271751319   -0.10133353121977
H          -0.97324772245037    1.20379367326466   -1.56039637289569
O           3.06062921782397    0.31341039127963   -0.86328618435559
H           3.77004659449700   -0.13345741343318   -0.39966977455991
H           2.37940837046996   -0.37919349382063   -1.05657326283448
O           1.08826658802141   -1.42396089114264   -1.09349570102301
H           0.39070012564964   -1.08488193476007   -1.68028589113361
H           0.67329681192637   -1.51846357139121   -0.22407581842855
N           1.33218425224150    1.90973186010852    0.42385745770791
H           0.47402374244237    1.99899023617531   -0.20249979292536
H           2.08448310256774    1.37880883863810   -0.07813480585177
H           1.66286530425266    2.82558466750088    0.70679284081118
H           1.02742001831379    1.34889629177225    1.28296270692936
