    26
        -50.46263963  Gyration_radius:  2.48416670983 Dipole_moment: 4.384
 S          -0.98660161401387   -0.44725746977863   -1.21857449757110
O           0.10359097361488    0.09764903147404   -2.03001135110132
O          -1.87766126015692    0.59601235817234   -0.73642515387394
O          -0.46334992723564   -1.25025670713271   -0.12359593090526
O          -1.84171406264112   -1.37605663784169   -2.13643610494525
H          -1.17552187036397   -1.93647959935557   -2.57991982761201
H           0.97778199133646   -1.02681531555446    0.48255441421592
O           1.86321047122239   -0.84294290912563    0.90115785284119
H           2.33379156041679   -1.67757773398564    0.88139317697026
O          -2.25870033916529   -0.17961157064826    1.88420637006846
H          -2.46870222698088    0.00688984786255    0.96016860871904
H          -1.61860320954659   -0.89518980426343    1.84596054631376
O           0.71952758006688    0.50795405503312    2.96474294398594
H           1.38927606364776    0.81892827288236    3.57457136155155
H           1.16772397297265   -0.07095266717919    2.31795110082701
O           0.42120863919070   -2.18611835718577   -3.26267450324482
H           0.56079770530066   -1.30147645399156   -2.86458712225078
H           0.48593856770988   -2.06949862572812   -4.21322439938318
O           1.66999885853841    1.54564875401970   -0.46205548034074
H           2.06204158315665    0.79956702160980    0.02009613907010
H           1.16261464300638    1.11800174618933   -1.18657793650218
N          -0.45415676742453    1.97900871120952    1.01258017558667
H           0.46233323545971    1.98905818646442    0.46220583118233
H          -1.14360257295990    1.47960185700708    0.38835761002694
H          -0.30173084465219    1.41349543262221    1.87591040079407
H          -0.78949118048340    2.90841857719918    1.24222576560398
