    26
        -50.46918102  Gyration_radius:  2.44009178614 Dipole_moment: 1.044
 S           1.24744155145291   -1.21624318580547    0.67264916901449
O           1.12154915518910   -1.69434216337841   -0.68971260314755
O           0.14227168599740   -1.63072419717150    1.51103086538241
O           1.46409649189731    0.22853218506099    0.73748545929027
O           2.57170832161126   -1.83914254142963    1.27011359036635
H           3.05533439033192   -1.05432813716074    1.50282820314651
H           0.56600279109692    0.97687176689380   -0.50816234496943
O           0.03657518051619    1.30576150213456   -1.26226596844653
H           0.65192077783691    1.22612820211120   -2.00721420425152
O          -1.90461379663000    1.88587499934356    0.66855139942848
H          -1.26243095237080    1.98197758711068    1.40535573450413
H          -1.37529079503725    1.96028042884214   -0.13956276388628
O           0.12306780155521    1.78492130431708    2.41514264376928
H           0.68543009384585    2.55323770208391    2.52730180168683
H           0.63401700105438    1.14959802076002    1.87006877562876
O           1.92987710036456   -0.06767738265474   -2.68707212956679
H           1.74755818484739   -0.68529076384260   -1.95230396009734
H           1.92845170792718   -0.59916367187348   -3.48454668014292
O          -1.25145920699902   -1.04125466924133   -1.76335726341976
H          -0.95692479773430   -0.11053400733663   -1.82737102244850
H          -0.43941784755208   -1.51476134510908   -1.50061531097042
N          -2.17439290876379   -0.72919295146599    0.66629562544667
H          -3.01727042217015   -1.15320023041016    1.03603610253625
H          -1.31449862152028   -1.09878683466590    1.15165107867912
H          -2.01898311518314   -0.95448335198821   -0.36172480748519
H          -2.19001977158272    0.33594173486327    0.74939860993010
