    26
        -50.46654724  Gyration_radius:  2.47656860401 Dipole_moment: 1.543
 S           1.42592374123878   -1.22880983516895    0.02725170522371
O           0.24464293382491   -1.12235936932690    0.86889110286855
O           1.59361527935183   -0.03005771610683   -0.78290181277792
O           1.52419997270480   -2.46751572774540   -0.69714087576704
O           2.67540129261607   -1.21465697093552    1.03702468059755
H           2.99467576993764   -2.11220087669335    1.02438147605126
H           0.15284806248867   -1.98823382183813   -1.63757869579926
O          -0.52376373504984   -1.45561881010173   -2.09160715559401
H          -0.04157102820603   -0.75487396125497   -2.53652784567430
O           0.17698563506296    2.19904806492908   -1.27640522866699
H           0.76938950592183    1.42385857073293   -1.29887466372491
H           0.59890392781443    2.81510466678258   -0.67112253700056
O          -0.68968509929363    1.07431604442537    2.64267493880959
H          -0.53403675256424    0.12445976883577    2.65851301855596
H           0.14077530877612    1.44283931959843    2.28834690364833
O          -3.09253596996239   -0.92505859090387   -1.35419404314500
H          -2.23728175306899   -1.17885903390779   -1.75317174108847
H          -3.47561979465181   -1.73484297822856   -1.01370797215253
O           1.69929095798620    1.57218487897305    1.35404780695103
H           1.70137761568353    0.96949910986586    0.58617994019917
H           2.41338655276387    1.26268226530104    1.91412585398239
N          -1.53804223494277    0.68495867306231    0.13607782859637
H          -0.84780538528236   -0.09181346100171    0.32519334424268
H          -1.05411853591513    1.37763692912793   -0.48181764727421
H          -2.36197760962959    0.26378293950288   -0.33444347487435
H          -1.71497866756099    1.09452993224809    1.06678509366292
