    26
        -50.46854459  Gyration_radius:  2.52501651156 Dipole_moment: 1.488
 S          -1.33718065359199   -1.26313873950278   -0.37103223329535
O          -1.14328246632000   -0.20501301332968   -1.34462690135309
O          -0.86741263078617   -0.86274900894921    0.95063133181481
O          -0.79295932692777   -2.54229464852336   -0.77287206330906
O          -2.90443532304489   -1.45594464214885   -0.25596028152726
H          -2.97386334929169   -2.25638103541078    0.25315727998528
H           0.81698953504668   -2.39256666133616   -0.79795183442205
O           1.79341466742314   -2.23244563515327   -0.81170457828468
H           2.18210779422117   -3.00795740998801   -1.22019963424343
O          -2.06977032221244    2.10038069543790   -0.44052978078881
H          -2.42845012077481    2.52697693503576   -1.22064963224016
H          -1.75722125709073    1.21960455457823   -0.74193540411510
O          -0.28452699900002    3.35708446673303    1.11226311301168
H          -0.73479100874897    3.54710724429292    1.93658432280407
H          -0.97038943615609    2.99355235721644    0.50733260157296
O           1.46467156185899    0.32420320159706   -1.75764519179583
H           0.50750077812486    0.19340598517206   -1.88421958208795
H           1.81192148380487   -0.56623315380577   -1.57662211474032
O           1.85150341518742   -1.30414997780255    1.83262562711322
H           2.07745840287519   -1.70640704720528    0.98009048693661
H           0.89444200140695   -1.41012274528790    1.90130134565003
N           0.99128426418607    1.01876131018820    0.75653720473886
H           1.69637614796111    0.60156096645580    1.37740834903217
H           1.30970973387909    0.93195058278317   -0.24756889568896
H           0.14918332271618    0.39460234978248    0.84534730897024
H           0.71771977525645    1.99621309917688    0.99023915624285
