    26
        -50.46882636  Gyration_radius:  2.47832598559 Dipole_moment: 4.140
 S          -1.36075282789491   -1.67806678604397    0.36441402361147
O          -1.51024040631293   -1.44627743987932    1.78515780250832
O          -0.12463781836606   -2.34957690870997    0.00480318721291
O          -1.54823940042236   -0.46924538438041   -0.42978700241270
O          -2.54465625872620   -2.66010050190437   -0.02083078651105
H          -3.04326612311266   -2.64637861157163    0.78869456996911
H          -0.77647961555013    0.10625430735394   -1.74101357289793
O          -0.22586053736059    0.43018022645630   -2.49666497694755
H          -0.81241509304163    0.47875148922479   -3.25229960485223
O           0.66839539253837    2.53520726203269   -0.78827453650767
H          -0.10090562060041    2.50694872363847   -0.17665536723855
H           0.40323799228318    1.99455936333444   -1.54444382330449
O          -1.31561211697210    1.88830187565146    0.89866992707683
H          -0.81190608524909    1.58831325261718    1.66624698188012
H          -1.56325526243214    1.07248675000995    0.42943547678187
O           0.35114214040334    0.24006787195985    2.48385013901002
H           0.56631645160415    0.07397457575716    3.40295529989008
H          -0.33512872679217   -0.42602832075204    2.23768589937029
O           2.21622313395323    0.91590185900477    0.59057440396703
H           1.63442521742738    0.69823725928719    1.34192912797319
H           1.75849906272119    1.66114482301883    0.11736674280953
N           1.71785806656400   -0.91655799145457   -1.15259075175494
H           2.02334207764213   -0.17481484349604   -0.40827250870687
H           1.20873585814983   -0.42409991871006   -1.90295070430054
H           2.50803171919342   -1.43751980714547   -1.51494208637153
H           1.01714879034323   -1.56166313527339   -0.68305787023525
