    26
        -50.45743842  Gyration_radius:  2.71331599095 Dipole_moment: 3.812
 S          -0.46368909342348   -2.32519062338478    0.85836920857969
O          -1.61958958594596   -1.44308298250985    0.82035577885424
O          -0.73683569118401   -3.71844736015614    0.99202513823749
O           0.31282461514840   -1.92427020081910    2.23917654955763
O           0.49985193231399   -1.96321998190319   -0.18182886729882
H           1.89575501135527   -1.17494173292220    0.19342883873440
H           0.03929537394805   -2.66843459220861    2.76393792286136
O           0.77687354342792    0.04635155015934   -1.86285715861314
H           0.57951690092872   -0.82168001233903   -1.44687728589903
O          -2.36015961162197    2.65915345629456   -0.66181756227029
H          -3.28080115589280    2.39554643824780   -0.61894908923180
H          -2.04056145792159    2.38908397426499   -1.54558089855984
O          -1.26740108639699    1.62391817460217   -2.93445375892359
H          -0.90814855473044    2.12192623492505   -3.67012322796729
H          -0.58895246349615    0.97908737810474   -2.67821365243039
O           1.31540987014088    0.71882206843270    2.27964107725194
H           1.99132115765277    0.42783758228472    1.63662930193193
H           0.97199434661851   -0.10374897901144    2.65061142047178
O           2.68441384574670   -0.59855969944293    0.33446602692370
H           3.39489382239984   -1.18455359360000    0.59750968911059
H           1.71752559444551    0.17989692551959   -1.70911372893880
N          -0.58646192878420    0.90000122027649    0.39800685104590
H          -0.03607022300732    0.75999200018366   -0.46767238969580
H          -1.26618884770390    1.66871048404314    0.23547399447131
H          -1.09501834169964   -0.01616815388435    0.58438422328434
H           0.07020201753435    1.07197042490449    1.19347159852609
