    26
        -50.44209433  Gyration_radius:  2.4928357202 Dipole_moment: 5.256
 S          -1.33403979333054   -1.66521057987662   -1.09583437414831
O          -2.13892081197038   -1.05792421804485   -0.06290501166797
O          -2.01756696822841   -2.27660472104687   -2.17169863418314
O          -0.34131876899097   -2.64738568340394   -0.42259357013164
O          -0.38069583027722   -0.56294484065759   -1.65503823439851
H           0.54310695905445   -0.71034234609567   -1.28306732942609
H          -0.36636649035734   -2.42481998748935    0.57756870427631
O           1.38299638719866    0.08099514672847    1.70318331661151
H           2.03223845641353    0.32591673054586    2.36280294048247
O           1.94977713527306   -0.97202032572606   -0.64047311335912
H           1.83662924347760   -0.58729471424636    0.26711167845757
H           1.95039522415649   -1.92758394683108   -0.53727534766484
O           1.44040796056997    1.66392808678984   -1.96542258333028
H           2.05985092301309    0.95119847134689   -1.78286415568473
H           0.63382099639523    1.23642208302236   -2.27043483104841
O          -0.52517624912086   -1.78359475803497    1.93775479207509
H           0.15968302222235   -1.08103988573393    1.98840706447998
H          -1.34939377524939   -1.34700300280066    1.67424086766142
O          -2.36151366172905    1.61112622402367    0.18441283926380
H          -2.32806735167804    0.63940642493193    0.11612823791320
H          -3.02401251660003    1.89713286912699   -0.44589857950429
N           0.41344961078121    2.21129149456404    0.69264746969033
H          -0.59241108930701    2.08912259931682    0.57521674576623
H           0.82120522737204    2.26432931471583   -0.24158874806845
H           0.56864810282347    3.09504424873775    1.15960397933483
H           0.96727406806790    0.97785532611455    1.33601588660676
