    26
        -50.46733400  Gyration_radius:  2.56532083361 Dipole_moment: 3.532
 S          -0.53538265956694   -0.17592887774112   -2.00706994280364
O           0.11627315476643   -0.98496163943075   -0.97796676388821
O          -0.85772128421547    1.14975100954063   -1.50092438892234
O          -1.60933222999517   -0.83362335457059   -2.69206909074551
O           0.63217145805635    0.04304214116936   -3.09033689071385
H           0.15703711007760    0.15361961575259   -3.90812612466798
H          -2.79246510994597   -0.77838424715957   -1.11980628641447
O          -2.86319762770400   -0.20887945361387   -0.34279799879374
H          -2.34587664950237    0.57051871567384   -0.59468613832576
O           2.42303411211756    0.24424012304070   -0.68342205161807
H           2.86743672944249    0.29122626991937   -1.53138802028162
H           1.59266020061021   -0.25549258164752   -0.85759135652466
O           0.65489859050857    2.11608072982608    0.45393050437141
H           0.03061868419091    1.96178418617271   -0.28577918534838
H           1.50169162106845    1.78795466683585    0.11751557989722
O           2.71898128900682   -0.64125563621603    1.93175396238935
H           3.33594147745303   -0.06043150303883    2.37920248903394
H           2.76943529068934   -0.42103563469805    0.98473725856973
O          -2.48580504102610   -0.77369696183396    2.26829902820482
H          -2.86398402947305   -1.63798624367631    2.43561049832891
H          -2.75076081531643   -0.53279685846382    1.35520320406362
N           0.05232169224950   -0.21109973338683    1.56963808892523
H           0.17474704005368    0.81666298228468    1.36264392857274
H           0.91107777049448   -0.54926076223923    2.03069898158807
H          -0.83033018420485   -0.41321987589745    2.07896491027763
H          -0.00347057983535   -0.65682707656377    0.62376581482102
