    26
        -50.46682965  Gyration_radius:  2.4946110479 Dipole_moment: 3.688
 S          -1.78495418207029   -1.14115153641160   -0.05215800031383
O          -1.98466667624075    0.17242979750321   -0.62715757920971
O          -1.03463183331651   -1.06381745223631    1.20483097661921
O          -1.22291868055322   -2.11863894157665   -0.95476835129264
O          -3.22609630075094   -1.68064775352784    0.33658474667531
H          -3.07114331104581   -2.61906823986189    0.36184485479068
H          -0.81842837687176   -1.27555372008849   -2.34829432792152
O           1.43398467871306    0.48943314674106   -1.76610128562169
H           2.16023084520909    0.53950882428356   -2.38919763247856
O          -0.67774606642648   -0.50412915497370   -2.93872608781344
H           0.66458016551532    0.10126262172234   -2.27254652464775
H          -1.37723720225080    0.10319744845776   -2.67243229041725
O          -0.25676675328459    2.18215521945860   -0.42065703924164
H          -1.01890767970457    1.58541224859555   -0.57578657998862
H           0.46988858882476    1.77398686595479   -0.92387026313938
O           2.50722005303265    0.38464989515886    2.21243840562210
H           3.24285913630045    0.84121457710777    1.80183475209562
H           2.26420013703399   -0.35679555717474    1.59463711402019
O           1.57535954044127   -1.25397305643876    0.38683939538150
H           1.55982330716343   -0.71618244967344   -0.42403158092373
H           0.64680865037102   -1.41623807042711    0.61896527611579
N          -0.01249941487830    1.21560320361900    1.99744207398836
H          -0.49183728215980    0.29444901983556    1.78153169435219
H          -0.47178802609256    1.69053142127026    2.76568610531275
H           0.99431919446614    1.00021377763564    2.21608139261977
H          -0.06965251136725    1.77214785507036    1.08701074538177
