    26
        -50.46631272  Gyration_radius:  2.3972830044 Dipole_moment: 8.096
 S          -0.94010994065215   -1.61632784978672    0.45885917709621
O          -2.29627554778617   -2.05744504418850    0.34300656771801
O          -0.80470263972402   -0.48425793328984    1.40810612792824
O          -0.39430235591296   -1.18932446781492   -0.84788548791010
O          -0.04045059338665   -2.75097980246232    0.98233563317224
H           0.88833491532056   -2.37254121993175    1.00649793231035
H          -1.79173464371536   -0.59586918493755   -1.61824434782152
O          -2.66557218286129   -0.14976435788010   -1.60958818891405
H          -3.18912003793596   -0.75793629730411   -1.07064616494866
O           2.27461672142365   -1.58136427166398    0.94694012152895
H           2.40496984137140   -1.23745738253547    0.05234012767104
H           2.15865279166350   -0.78229959128508    1.50532604138301
O           1.00908875096014    2.22721588255669   -0.51430366760186
H           1.54279241746856    2.93360850691150   -0.88017632216290
H           1.36269342712851    1.38356277918630   -0.88568931443367
O           1.83946193610266   -0.12687152004574   -1.44229705754447
H           1.99463697112205   -0.32252136617738   -2.36748094101547
H           0.97289345566487   -0.57287927542171   -1.21204853745071
O           1.48052014748924    0.76734346244677    2.00565128165198
H           0.61159219550212    0.32355536020140    1.98558603395537
H           1.45549017659659    1.41233611036201    1.28873694084222
N          -1.58878152954551    1.55114126751517    0.08849664475550
H          -2.15700789774799    2.23671866998075    0.57372681743946
H          -1.29709501279595    0.73460401467485    0.74778674764787
H          -2.12218146362998    1.05856859438456   -0.68631720014197
H          -0.70840990209691    1.96918489653700   -0.25871897516251
