    26
        -50.46533372  Gyration_radius:  2.59981203407 Dipole_moment: 4.120
 S          -0.20737607068277   -1.07055373642686   -0.58641811289222
O          -0.78425684745839   -0.67093185062117   -1.86068065147338
O          -1.21620245407790   -1.28999951157626    0.43897200028216
O           0.77656750774722   -0.06282444770924   -0.14966236702777
O           0.53007103380244   -2.41894982796821   -0.75033011337389
H           1.22527141024185   -2.33509360051469   -1.46179642173560
H          -0.12575438627673    1.32411860686865   -0.49837319053048
O          -0.88697501286246    1.88949574835312   -0.75156384141543
H          -1.24131184999472    1.44613369128639   -1.53120929802809
O           1.35204177435982    0.16813394824325    2.39803151716503
H           2.18959517246239    0.63419075080701    2.37626786191554
H           1.11884185028992   -0.00600656893515    1.45601311196584
O           1.39048893039293    0.36716141212258   -2.89725248267327
H           0.49651190837582    0.03768561034786   -2.65101531576946
H           1.72851197961462    0.77617255027094   -2.09512212873342
O          -0.77518589992126    1.19176950894887    3.57347089373192
H          -0.98256810621622    0.56457014025393    4.26858312365072
H           0.07103434154335    0.86792548846202    3.17256459302787
O           2.21496393639696   -2.12506192904135   -2.70945218133822
H           2.05733415498093   -1.16415521945940   -2.89343590259026
H           1.86883991071557   -2.60383396255884   -3.46546434033682
N          -2.19204450405735    0.91383845568137    1.33846783314569
H          -1.87708248150420   -0.06656124965161    1.02710667646926
H          -3.20137765522784    0.97632717993412    1.40891684105159
H          -1.71934098011656    1.11743370893410    2.26008509336043
H          -1.81059766278269    1.53901508446785    0.58329679254479
