    26
        -50.46901127  Gyration_radius:  2.39491162753 Dipole_moment: 8.170
 S          -0.18770062606936   -1.30659093552649    0.51417614657409
O          -0.05296545458005    0.00804159232353    1.15602294499812
O           1.10254101620275   -1.98544297677920    0.45525101274176
O          -0.75536344822710   -1.15542093214361   -0.82566437736523
O          -1.13033056164634   -2.16018571458298    1.36893105936641
H          -1.86944474148341   -1.51618365710233    1.62721068458984
H           0.06567295925851   -0.18595472622490   -1.77290750658989
O           0.65866577568472    0.40908516923392   -2.31126570506568
H           0.46425325720756    0.20953255214972   -3.22863884879758
O          -0.91684531261023    2.03006105727674   -0.43104847118598
H          -0.36239110774956    1.90994767371473   -1.20849191026694
H          -0.59233440900283    1.37844256396332    0.21643622120518
O           2.29563352939642    1.15613310302577    1.45021713127815
H           1.37154393219988    0.81064391707353    1.41627696018435
H           2.62941934356273    0.92835873413467    2.31935928275243
O          -3.01840997336814    0.30971692975626   -0.67829094495410
H          -2.34854193802449   -0.36015827059747   -0.90202734312766
H          -2.52080732998061    1.14920754068662   -0.68030415813759
O          -2.78395450330336   -0.29350869434405    1.86451645220040
H          -3.07964296861046   -0.05616742221750    0.94323900157794
H          -2.12799521769517    0.36960960791771    2.10248500731133
N           2.67005427589415   -0.32600325301398   -0.70249506979600
H           2.06606039195728    0.05974335677488   -1.46326272699825
H           3.57364461797867   -0.63219310101180   -1.04588446740313
H           2.74939802569362    0.38120646833156    0.07283063235735
H           2.09984045737388   -1.13192059278634   -0.25667100751250
