    26
        -50.47096505  Gyration_radius:  2.40571715234 Dipole_moment: 5.278
 S           0.62969793108435    1.00920644961249   -0.73926543225675
O           0.58541728073441    2.18451615573046    0.11223186542459
O          -0.69832811552323    0.68762880645498   -1.26954943866271
O           1.18635914003739   -0.14209204278844   -0.02357957703791
O           1.56499397129298    1.31423473593487   -1.93150650586960
H           1.66170345615096    0.43553206739033   -2.38826789361249
H           0.28810636097951   -1.33156379008677    0.40225317512033
O          -0.29853991317480   -2.04209010385806    0.80120664425558
H           0.29814216338600   -2.72815688738358    1.10544589992598
O           1.25791151370014    1.12160950232475    2.38608132579641
H           1.82474894988296    0.44855483557383    1.99244462036830
H           1.06013025476622    1.70557323256331    1.61148807595680
O           1.58763909195619   -1.01220070796674   -3.10003679797005
H           0.78152214668066   -1.44413897095961   -2.72030611521338
H           1.40492581965620   -0.89244784468386   -4.03462802794196
O          -2.08342228966570    1.74117268851154    0.65221251335374
H          -1.49233043861683    2.49702049664058    0.75236810617639
H          -1.74898813603649    1.32055344795904   -0.17667506133643
O          -0.71218293616579   -1.81909776489771   -2.06217404512039
H          -0.86451740831790   -0.87430615224395   -1.84416305359915
H          -0.72130675738181   -2.26583091669274   -1.20815022151986
N          -1.12100919034080    0.00105676427094    2.36393036228056
H          -0.96924304204866   -0.89552671469176    1.84812007086944
H          -1.63594244677769    0.68273748427500    1.71501671880464
H          -1.62803947580413   -0.14240696062045    3.23030127608892
H          -0.15744793044042    0.44046219963513    2.52520149568157
