    26
        -50.47201779  Gyration_radius:  2.51742671094 Dipole_moment: 1.436
 S           0.26547791320125   -1.18961594788826    1.58518626782766
O          -0.18074653847500   -1.45683367695534    0.21756939946479
O          -0.35420366133762    0.00263112810829    2.12382366409240
O           1.70864049971586   -1.21160505254968    1.68800367210916
O          -0.26297774669619   -2.39321457964564    2.46592701733925
H           0.33007030532003   -3.09385995235330    2.21665766216842
H           2.34451486285667   -0.15575691512479    0.64014478292873
O           2.64632216981936    0.52598116913518   -0.01076454471114
H           3.57225906739279    0.68499416436561    0.18013919614929
O           1.30200524634761   -0.88106549426075   -2.00081573058287
H           1.92897787010814   -0.29765413418550   -1.54746688277618
H           0.79258331654633   -1.28850722931873   -1.27941757224221
O           0.49388085136531    2.09201814872551    0.62908564616200
H           1.34913003235055    1.74556628652725    0.31977141756024
H           0.24716647901114    1.52453465070189    1.38084652682492
O          -0.61519340521914    0.40620249695236   -3.32494449281254
H           0.18366481370074   -0.04237992925847   -2.95201211608778
H          -0.97753172981836   -0.19647162045005   -3.97512262752709
O          -2.89878812505629    0.51266547722647    1.40900528694159
H          -3.40512123157359    0.80544255762097    2.16726508619906
H          -2.01136087635533    0.28100696150418    1.74970860530593
N          -1.31625160377898    0.73906732498541   -0.76015826522746
H          -0.65416156375720    1.45519246434753   -0.35449912072725
H          -1.28298693509456    0.74691623688517   -1.80101521806206
H          -0.96059927114821   -0.18769525142960   -0.41812739791455
H          -2.24477074940001    0.87244072630679   -0.34879025241804
