    26
        -50.44693348  Gyration_radius:  2.49056082397 Dipole_moment: 4.016
 S          -1.46723453484196    1.36460900734214    0.76670603266602
O          -1.85551195316398    0.70274052737770   -0.46254045113521
O          -1.81466209105138    2.73589093684749    0.86519096293917
O           0.07613084770974    1.18107217461533    0.93440129355993
O          -1.97526347914740    0.56949117642625    1.96170338522466
H          -1.54584484103739   -0.36969245475173    1.87443370959964
H           0.58662108940542    1.59428618987330    0.18789518712566
O           1.34099869381397   -1.57597616838146    0.07279687775388
H           1.63255055056944   -2.43968122589974   -0.22294631061001
O          -0.95198177236084   -1.69006922636049    1.55124276659338
H          -0.06951311648883   -1.58900245376362    1.13866376804817
H          -1.54688632491688   -1.98179879502429    0.82684496079918
O          -2.62246475327696   -1.85386252980692   -0.53503898601317
H          -2.40408312651608   -0.90469525849841   -0.63458480977380
H          -3.56412974327130   -1.89471764841263   -0.36108572005489
O           2.98212069843528    0.45034827153693    0.81945983534504
H           2.60187295780477    0.72283308372457    1.65784460266394
H           2.48002724837881   -0.35218334344035    0.56836744616757
O           1.76545332510830    2.14441995356551   -0.79992866280610
H           1.99481301914349    3.04663086155852   -0.56883199237074
H           2.40061301636348    1.55297299946733   -0.31951892529375
N           0.37160000983333   -0.25673379576247   -1.97673000610079
H           0.95893141392527    0.54867456102898   -2.15879539190549
H          -0.50158907572308    0.09591025742404   -1.58660988543148
H           0.15939160978837   -0.70217998052451   -2.86004441436798
H           0.96804035104874   -1.09928711069555   -0.73889527247886
