    26
        -50.46244236  Gyration_radius:  2.48411868567 Dipole_moment: 4.943
 S           1.07735003054141   -2.18130574942895   -0.30020434632490
O           1.98717380261381   -1.66183943703991    0.70081521489217
O           1.22040150841360   -3.56273416306332   -0.62872993359386
O           1.46302833593290   -1.39958465221301   -1.67066963510131
O          -0.29696527790139   -1.74411883227092   -0.03472033420327
H          -1.22770456272647   -0.91099327622972   -1.00499165962207
H           1.96694957697428   -2.11302237976833   -2.04372587902020
O          -1.85614328031271   -0.33373565333861   -1.52117488424140
H          -2.47603700796841   -0.93290234908312   -1.93871261586163
O           0.43991983763310    1.14251097344260   -2.16326581008476
H          -0.45872423987067    0.78376991833179   -2.18653606374858
H           1.00655475733588    0.36611562923398   -2.06150618352593
O           0.41237617188109    2.46507723488786    0.15862295252519
H           0.97057940931122    1.90849821687189    0.73544010780346
H           0.54870546396714    2.12361904155925   -0.75438865260537
O           1.63347247472218    0.63723403559701    1.77143793527868
H           1.78643917626633   -0.23643926069676    1.31073088624688
H           2.41683143434071    0.78680844083169    2.30222481398615
O          -0.83128736461765   -0.47964022611373    2.22401463411291
H          -0.66157468036962   -1.11464865245176    1.49333012355422
H           0.03702251858275   -0.07029717023628    2.38146627811814
N          -1.86761305537942    1.32299504032666    0.64830868470990
H          -2.08048997268158    0.79214636485911   -0.21598198909799
H          -0.98714536786704    1.92204300875517    0.45707348566963
H          -2.65482152663908    1.88455887750820    0.94958845972643
H          -1.56829815228060    0.60588500987767    1.39155440034335
