    26
        -50.46332157  Gyration_radius:  2.50717111258 Dipole_moment: 7.648
 S           0.17983296430114    0.92830861050885   -1.09580092182699
O          -0.43887191856280   -0.21222778336027   -1.71378209003040
O           1.60525719851150    0.66596993517250   -0.79721286195888
O          -0.50108881722347    1.35163181078141    0.12420776347711
O           0.13584274997811    2.11739778689528   -2.10264933299850
H           0.68501353020895    2.79600532898068   -1.66633953727457
H          -0.10135910905768    0.70909470939222    1.55690136734956
O           0.16477441536257    0.21726356524786    2.37578771314778
H           0.63527869882441    0.85112660401799    2.91918238434386
O          -2.70190348870846    0.24878100150228    1.30806552572212
H          -2.07383456992882    0.79496623705973    0.80459307606654
H          -2.24013147766037    0.00579732396749    2.11482025757522
O           2.09477467251128    3.23754948028929   -0.69941801167422
H           2.86776664868685    3.46667895686814   -1.22012477241652
H           2.11328246037371    2.26576920158483   -0.58218550864963
O          -0.32840738255817   -3.00656115918362   -0.65923980064754
H          -1.24114197963706   -2.61886265233140   -0.53307237303700
H          -0.12092967459325   -2.77644236402923   -1.56966222523192
O          -2.52070701502778   -1.61289003159391   -0.66804001000833
H          -1.99149908778200   -1.01477048173952   -1.22255705454132
H          -2.78365541824389   -1.06860962787779    0.09797161028191
N           1.32899678838682   -1.48674088493045    0.65907622656776
H           2.17134055640459   -1.99139720594041    0.91560584765668
H           0.88820942086542   -1.03893334552929    1.49256198337167
H           1.54671345681501   -0.68521530980161   -0.00074161875420
H           0.62644637774333   -2.14368972600926    0.16205236346884
