    26
        -50.46293805  Gyration_radius:  2.57507296547 Dipole_moment: 3.759
 S          -2.03272098509945   -0.87051409749679    0.57086403809487
O          -2.45433758621155    0.47325403578296    0.86231555741520
O          -0.69360465857551   -1.15029920309566    1.10327097024000
O          -2.10637099991236   -1.22410394381371   -0.84022190123401
O          -3.01895888044397   -1.86230949625682    1.31273790940145
H          -2.81409637328324   -2.68679830147707    0.88396521098612
H          -1.46774937371819   -0.10099771498256   -1.72095899406288
O           1.52830317569175   -0.00494075772563   -1.79705811580404
H           2.09192066380067    0.38535741899310   -2.46643905133745
O          -1.02959971262596    0.59356162683254   -2.29246413093031
H          -1.46980337127944    0.53272711949883   -3.14216657722937
H           0.59790959332556    0.13930391234342   -2.08369632463710
O          -1.18560409739222    2.53746825897629   -0.24016124300469
H          -1.17384727320174    2.15299226789082   -1.12898944290457
H          -1.82402507082878    1.97853756763736    0.24670403490336
O           2.85649347072514    0.15372317896134    2.11067533065110
H           2.65559382765231   -0.63627318171141    1.56041435792300
H           2.98274946062348   -0.17012421266332    3.00274841789133
O           1.90080796253023   -1.81442751579978    0.50175431574041
H           1.91459604850787   -1.48782153352190   -0.40524202726491
H           0.96632469383465   -1.79537432854907    0.76867979871688
N           0.76608336751527    1.00195652491381    0.65285416256697
H           0.14956899021003    0.19334071322994    0.93622960634128
H           0.13877068064426    1.82430763590598    0.46075289402001
H           1.49383161179474    1.11912951005912    1.37400918862002
H           1.22776481568739    0.71832451605092   -0.23057796508703
