    26
        -50.46190936  Gyration_radius:  2.59649934302 Dipole_moment: 3.025
 S           0.98029388611782   -1.16341513103836   -1.91230309957522
O           0.74993291225313   -1.82088038496169   -0.63249460168087
O           1.80114785642132    0.02673750905233   -1.76854216553119
O          -0.22854416113172   -0.92122885388531   -2.67238820733986
O           1.83301565786510   -2.21181629712769   -2.75788957532462
H           1.78918055435574   -1.86764896661300   -3.64482859289505
H          -0.76227412221217    0.28864604324108   -1.66673187496572
O          -1.04497815487488    0.73438876457753   -0.83860543960622
H          -1.39762801301007   -0.00035363580045   -0.30059784365288
O          -1.45475046494312   -1.48310256238473    0.69475512357223
H          -0.59405452662730   -1.68950387823255    0.24608977469936
H          -2.02812110483499   -2.22819088634478    0.51042791828091
O          -2.35548092559247    2.32953232275436    0.97960299662257
H          -3.25277783977131    2.57518735479131    0.75245387669876
H          -1.95729660286538    1.95217554946485    0.17746556889584
O          -1.10036969011499    0.49723064199434    2.61156550558113
H          -1.30479483815237   -0.32591648577546    2.13823519237158
H          -1.71663517201781    1.16512353263217    2.26309907124980
O           2.78967439301049   -0.48201180474660    0.55984089728116
H           2.67018100171993   -0.24683526032493   -0.39131606609846
H           2.33253353392325   -1.33057333364290    0.61890308502006
N           0.86323134270312    1.25917160509419    1.01705996768226
H           0.31059287367668    1.15343656246391    0.13333459226245
H           1.18255921713313    2.21623229281835    1.12026661803926
H           0.20397931716948    0.98476802689463    1.80407116302207
H           1.69138307979859    0.58884726509815    0.95852611539046
