    26
        -50.45364258  Gyration_radius:  2.46028382436 Dipole_moment: 5.003
 S           1.17350319401231   -1.41178423779886    1.06011591917704
O           2.53328635765425   -1.42997281058361    1.46271512270176
O           0.92074761778856   -1.07883258368729   -0.32173989541790
O           0.39161200475045   -0.40541917422330    1.94304340206470
O           0.51863235924546   -2.77143570994357    1.38205048695300
H          -0.44276648881766   -2.68460306533641    1.13613950423131
H          -0.32685352419130    0.12302959084356    1.44146125817849
O           0.30288975662762    2.48582086082679   -0.75958423448127
H           0.36961274012016    3.44043208267188   -0.71605382198943
O          -0.15156996118221    0.24325997832357   -2.40015572279746
H          -0.01626332575491    1.13766583856798   -2.05234382096448
H           0.38457879960358   -0.32790465574319   -1.82484065580430
O          -1.94287354278379   -2.18625332429753    0.82393234408272
H          -2.20514283417749   -1.55862645151805    1.50255258129828
H          -2.06388585598749   -1.73031421340297   -0.03407981899449
O          -2.37152593836555   -0.57729567500779   -1.31408239862859
H          -3.07112216386882   -0.71241955229803   -1.95398306044900
H          -1.55438447451508   -0.31845624576061   -1.83003341757773
O          -1.37040533438895    0.96690954200172    0.71997241915768
H          -0.82362494615619    1.60910332455868    0.22033737431376
H          -1.84605201386650    0.45907520056644    0.04000134847974
N           2.43250915790126    1.34515402847649    0.34438891900619
H           2.24867003988276    0.39635043752644    0.03178621179131
H           2.36734574452084    1.31456908299380    1.35544183304593
H           3.39605042332955    1.55639556251126    0.11224397567331
H           1.14703221879460    2.11555217980266   -0.36928586310357
