    26
        -50.47440957  Gyration_radius:  2.43446925092 Dipole_moment: 5.469
 S          -0.56901354141576    1.35994904489942    0.55122264120257
O          -0.44876102776998    1.39432317779522   -0.90234366472308
O           0.68220013615183    0.98376572213699    1.19033878704858
O          -1.65902557528382    0.48364162646399    0.97390780272641
O          -0.92189813958169    2.81365292481274    0.99047612495677
H          -0.99174098949002    2.72772122280983    1.96140364114091
H          -1.72115118285765   -1.01214926574877    0.41477227089333
O          -1.67674138756038   -1.93151050562793    0.04063493045401
H          -2.44948656599748   -2.39173397955273    0.37155191209601
O           1.08141328780229   -1.65004297936651    0.75660074711935
H           1.00279816541686   -0.70939479440497    1.00545457553839
H           0.17838957506720   -1.98029897521310    0.67162664589196
O           2.01213490160584   -1.35353353978691   -1.71652223608463
H           1.87661473530056   -1.64235116500317   -0.78435496079416
H           2.31022356166946   -0.41789234759161   -1.63523875762901
O          -0.90704951132908    1.60088783967002    3.33332415619629
H          -0.00795710870658    1.31605058902625    3.12673681583206
H          -1.47885512477150    0.98893362473545    2.84898635524608
O           2.24773445783776    1.24093251369037   -1.11958305831928
H           1.30589795178965    1.47256200931156   -1.19224076510273
H           2.40641503964172    1.22998121762190   -0.16971467995798
N          -0.47606424243762   -0.91706852427003   -2.17437697579199
H          -1.01600790820075   -1.52607656372774   -1.53607768190274
H          -0.54993295086549    0.05743845390532   -1.78090816783224
H           0.59353215701367   -1.17791955049825   -2.10022868211519
H          -0.82366870302652   -0.95986776608263   -3.12544778608520
