    26
        -50.46691539  Gyration_radius:  2.51887071426 Dipole_moment: 5.476
 S          -0.39633864991970   -1.24802830341464   -0.91762820033250
O          -1.46645563076664   -0.64803221991774   -0.08529338647501
O           0.28152307872522   -2.30541662463736   -0.20970276955843
O           0.51514758830837   -0.19299497820979   -1.36058589901322
O          -1.07463747287383   -1.86863930795785   -2.15860794381601
H          -1.52283906411617   -1.13427939055289   -2.65919133607563
H           1.70417845231995    0.18373284476771   -0.41765209535457
O           2.44377975114301    0.46829357848893    0.19386691109140
H           3.18512036777712    0.66406159204185   -0.38126523370009
O           1.07932441908268    2.12112949527507    1.82746788646704
H           1.69475862953373    2.49225306997231    2.46131457512556
H           1.61676479014156    1.63373263860787    1.16699862733869
O           1.70723874613217   -1.61481612992386    1.86616637219225
H           1.26088284141189   -2.09241140520284    1.12829674237911
H           2.26885243845180   -0.96506465122701    1.41387033156892
O          -1.49774405358324    1.66517384239396   -1.35509586004291
H          -1.63092809103148    0.89715666727356   -0.76207135186723
H          -0.55372569686434    1.63108786479962   -1.54869317496966
O          -2.35196576615663    0.09775123360646   -3.29754779282929
H          -2.08998956803457    0.83119507686874   -2.68512548502626
H          -3.29135428026235   -0.04448267776291   -3.16437126479436
N          -0.39492041613491   -0.10604182873505    2.21684100543583
H          -0.91459056202504   -0.32689676117158    1.30857212445383
H          -0.01326452092651    0.86268357492338    2.16177620899661
H          -1.00508425129814   -0.22636071254151    3.01747128880053
H           0.44626693121709   -0.77478650697874    2.24018969903966
