    26
        -50.46501532  Gyration_radius:  2.55445761026 Dipole_moment: 4.869
 S          -0.20821452003778   -1.79851981839664    1.38741612414177
O           0.94449090443628   -0.96819778498244    1.11054131743509
O          -0.82211594728292   -2.32264150819184    0.17285160759028
O          -1.19094159557350   -1.14259822722568    2.23382454923970
O           0.32832677821821   -3.05073840904382    2.18916425209983
H          -0.45419655310827   -3.58481231658597    2.27860677850985
H          -1.73878368788602    0.19474489783368    1.60119252688079
O          -2.04395587090134    1.01536524497079    1.12189508431175
H          -2.80164355609026    1.33876741893256    1.61183949849550
O           0.67047490072482    1.70821738400595    1.32467381814653
H           0.90816717220691    0.76362351387693    1.35453196083727
H          -0.29682226336601    1.71732908084997    1.32562311192282
O           2.23216450416156   -1.12404800674455   -1.21005675559983
H           3.07704043132121   -0.71657296663789   -1.00852454882012
H           1.75046170262013   -1.16677192588069   -0.35757747499947
O           0.63012121205711    0.57313732610385   -2.49211348991283
H           0.94975341969548    1.40132707226682   -2.07504369980910
H           1.26758561195525   -0.11381403035085   -2.18669490120777
O           1.49584742661907    2.63177139726479   -1.02473417140090
H           1.33917777812702    3.57597894485862   -1.02173476640326
H           1.26873712230209    2.30865777422865   -0.11925227736614
N          -1.47991513877002   -0.23947279962033   -1.25198563690832
H          -0.60631104916154    0.14101302303652   -1.79578217607664
H          -1.20293169774191   -1.14144968890466   -0.76289517941621
H          -1.77338440854230    0.41670662733014   -0.50940757322068
H          -2.24313265612395   -0.41700222303767   -1.89635799843690
