    26
        -50.43499368  Gyration_radius:  2.48068213901 Dipole_moment: 7.446
 S          -1.70867151286101   -1.49034241890775    0.19637041802396
O          -0.43845589731818   -1.74180699813712    0.81977771397285
O          -2.71765466786156   -2.47028839140194    0.33404429763761
O          -1.44833895720404   -1.16116045654670   -1.31088136977677
O          -2.25078265248885   -0.12276724964651    0.71141631940253
H          -1.86065349209810    0.60017658471573    0.14267656156258
H          -0.47964528995445   -1.27472247983336   -1.52645204908202
O           1.29561909608297    1.23262533618898   -0.99516467874899
H           2.01315584985206    1.85614722360548   -1.10872407869626
O          -1.11938132760908    2.19169513891075    2.11739255651663
H          -1.75055644681632    1.47383963168229    2.22343845039614
H          -1.26784590096548    2.54200261328261    1.23400294861080
O           1.04114853625983   -1.17100067094536   -2.02929741818100
H           1.09232104836426   -1.12141660155932   -2.98573533900247
H           1.24904914186509   -0.26929477501364   -1.67423191059026
O           2.32219793760678   -2.21354449294085    0.38437909327767
H           2.17683738268539   -2.08681036701277   -0.55754372850558
H           1.43556554293856   -2.28954137911270    0.75502143114951
O          -1.29501331815358    1.73217971290920   -0.83620356786068
H          -1.68200913315241    1.48809117620430   -1.67978079022894
H          -0.31651976891438    1.61563748034495   -0.93046696139841
N           1.15526692239557    0.53313823472567    1.42893009799435
H           0.63034502327064   -0.33976233136192    1.37084834849034
H           1.30883487132061    0.94152512598022    0.04212723430052
H           0.59646133542894    1.20270612837859    1.95502753658742
H           2.01872567732271    0.34269421549245    1.91902887414639
