    26
        -50.46823144  Gyration_radius:  2.44857314185 Dipole_moment: 2.700
 S          -1.37036842596239    0.93748187432361    1.20653690373299
O          -0.14910589151256    0.25940704551762    1.62620808574671
O          -1.22314048179280    2.34939216335884    1.00397738782869
O          -2.38573628012708    0.76038490504143    2.42324266618892
O          -1.97675424946304    0.23723464124638    0.07674084129020
H          -1.52410300402742   -1.30425579556086    0.31807840617724
H          -2.79516096778951    1.61839908095677    2.46689044561262
O          -1.09066118124024   -2.15718794427741    0.56304669213355
H          -0.89886585110200   -2.05659615926267    1.49933774359189
O          -1.46998160583903    0.71629977811552   -2.47500408742400
H          -2.12960954953986    0.20795879217302   -2.94898340020910
H          -1.69876488019779    0.63643275303706   -1.52473804385670
O           1.31112151644272    1.81631574184563    0.00237393453142
H           0.74437386099665    1.31160443821847    0.61500852940967
H           0.84824964333179    2.65324063672926   -0.09289893396457
O           2.42555834918891   -0.53427817922951    1.44997337912050
H           1.54011305654169   -0.30445663736026    1.78326835177409
H           2.76824658124450    0.29021602618762    1.08944980408318
O           1.14428372237259    0.23535656401458   -2.18460230339797
H           0.21664152313291    0.40987638646070   -2.45032960108916
H           1.33364687653971    0.91474346245346   -1.50467653194185
N           1.28416972533118   -1.82591915940370   -0.59913711728462
H           0.32247000432383   -2.03019700898461   -0.20634511512394
H           1.70285763525171   -2.66079350121057   -0.99291363489089
H           1.20807641184121   -1.04089079588246   -1.33536601967039
H           1.86244347182932   -1.43976910882549    0.19086160683867
