    26
        -50.45846156  Gyration_radius:  2.79963878086 Dipole_moment: 4.053
 S          -0.44419750433983   -2.67304034286917   -1.19482926243350
O          -1.47920711851560   -1.81890810386845   -1.78018442246152
O          -0.55115329411280   -2.76940522659080    0.24261691939547
O           0.88173269392853   -2.28009582128075   -1.64943631635387
O          -0.70219709080092   -4.12564308643698   -1.77668111819504
H          -0.61937528399383   -3.97534393962351   -2.71321043239034
H           1.59194014830263   -1.02992273672640   -0.99681084652509
O           2.02179709684523   -0.26323275291540   -0.52482491851750
H           2.96503700698661   -0.42116659856838   -0.58414024435029
O           0.60096965965920    3.34056522122391    1.03019948841146
H           0.15648783304166    4.18701789063336    1.08757980240033
H           0.15364557374254    2.74538645464343    1.66660534140006
O           0.55963915598645    1.93247206510737   -1.28450630641117
H           1.23241889081023    1.23821652473841   -1.16588065393124
H           0.67404056503435    2.53429179292943   -0.52102926857163
O           0.21786756788893   -0.61784541473989    1.47881107123153
H          -0.05502983573705   -1.52329457808084    1.19466823326831
H           1.01744952079907   -0.42862095063719    0.95235845300846
O          -0.64819810608241    1.62358691600610    2.72746584046820
H          -0.34116723460102    0.75593820874171    2.40256216718594
H          -0.40268172077355    1.66222497395380    3.65289289797817
N          -1.39265170144234    0.39698084284211   -0.44782655453823
H          -0.93469753171673    0.07535421808813    0.43575363268105
H          -0.70909049060314    1.07930373466957   -0.90916735950861
H          -1.50220244390083   -0.47335629910573   -1.06032986820035
H          -2.29117635639786    0.82853701787957   -0.26265626503166
