    26
        -50.46844455  Gyration_radius:  2.50857544079 Dipole_moment: 3.190
 S          -1.59675074830365   -1.31185504073514   -0.21622622035144
O          -0.65065600704601   -0.74355932774828   -1.17795123797188
O          -1.69257529710586   -0.48396823969967    0.97520358210100
O          -1.36586142083915   -2.70680217476103    0.02739744990215
O          -3.03429488434021   -1.20102837277894   -0.91183281219133
H          -3.17198442556928   -2.08612659087097   -1.23339447074314
H           0.92128464993409   -2.77132098615952    0.23687904222089
O           1.31728154964875   -1.91102689515210    0.06625090850879
H           0.64446509403469   -1.46557854440065   -0.49815574034390
O          -0.37983604956493    1.87383762303478   -1.33801445523284
H          -1.23779336872597    2.08300147810489   -0.90993590808374
H          -0.43892443725350    0.90517985690106   -1.48260712682135
O          -2.73942140676736    1.69946940731235   -0.08956889210550
H          -2.40692544945001    0.93473555154375    0.42362238591343
H          -3.41896005834791    1.33694164631065   -0.66156730297679
O           0.68191692683131   -0.14567392976178    2.06254461236688
H           1.08131420505152   -0.89111258573086    1.57858587158422
H          -0.27367068554961   -0.22410899173896    1.85665204198407
O           3.34943354449919   -0.11944527012348   -0.43728708035739
H           2.70580767428886   -0.84822544688778   -0.40244457082513
H           4.12208161946946   -0.41917939346453    0.04408835459945
N           1.52984624422687    1.72532254291663    0.42394192053638
H           2.31965054929369    1.21358134800547   -0.01471663694245
H           0.75116903333699    1.86894603242522   -0.31404299937796
H           1.14941154441130    1.07594287708119    1.18326385162620
H           1.83399161383160    2.61205344636661    0.80931543298215
