    26
        -50.45821273  Gyration_radius:  2.48051676145 Dipole_moment: 9.153
 S          -2.03818791493211   -0.81876319046293   -0.38910869611314
O          -2.31400444425363    0.24800245703330    0.52156133350254
O          -1.59446695599645   -2.05436480148885    0.27164247956479
O          -1.08800682015192   -0.46296636040789   -1.44546535390538
O          -3.38690650207022   -1.19740580590059   -1.12164146578372
H          -3.13481505605222   -1.96972424948365   -1.61640231758177
H           0.43097973592993   -0.95849900957454   -1.51413511884915
O           1.36975695921081   -1.28896542780183   -1.47317796067637
H           1.55101688137518   -1.68145487449711   -2.32786408993751
O          -0.18468928928991    2.14889235116765   -1.33772876490286
H          -0.52826808316121    2.48554119629954   -0.48380450028012
H          -0.62609003971890    1.29472036114511   -1.47268189516747
O          -0.96162121351491    2.47678917385967    1.23880163426079
H          -0.22377047614622    2.01038910341345    1.65239161567807
H          -1.63226378209064    1.79168929890736    1.08321518052618
O           2.13137714212415    1.24149488563759   -0.52742193062849
H           2.10371241511645    0.37832933548213   -0.96393333741769
H           1.34743195655450    1.72837041406044   -0.90459643404575
O           1.31545632169499    0.81676301454724    1.86776784948570
H           1.96387607245062    1.14567637010180    2.49127356628304
H           1.66365930938882    1.05591348779965    0.94434811489102
N           0.78426227753889   -1.68777050976033    1.12611860500482
H           1.27143166534098   -1.70422811872860    0.21100751837316
H          -0.26227125401945   -1.84148240658915    0.87467752568626
H           1.11790423910848   -2.42149741090988    1.74205324696475
H           0.92449688555224   -0.73544927382380    1.55310319512625
