    26
        -50.47603925  Gyration_radius:  2.46424235001 Dipole_moment: 2.626
 S           1.21092900455413   -0.80262297074947   -0.36931609135171
O           0.22003886456642   -1.83206426480101   -0.10669977044225
O           1.74356987696159   -0.22311161694003    0.86115580699820
O           0.67520866518588    0.24067948603686   -1.24004575515576
O           2.38385293968214   -1.49652776902836   -1.12363266182220
H           3.09635048443012   -0.82648827598147   -1.10048867786380
H          -0.21224189214593    1.45222902003092   -0.61957777728506
O          -0.80045050001221    2.13790024675922   -0.21630831697727
H          -0.61221272989867    2.95252247041060   -0.68462803372970
O          -2.94008980710553    0.39411464752471   -0.46260611068125
H          -2.39020276545285    1.19517236237831   -0.42034314852785
H          -2.58486205154525   -0.11351918412550   -1.22860981666182
O           3.94855231018306    0.48714734945303   -0.35779722337250
H           3.19008952891898    0.44619565946071    0.25989477832338
H           4.73011550956579    0.26343127031677    0.15272847874579
O          -1.47577288600273   -1.00113193691856   -2.21229353860793
H          -1.28181814150273   -1.87030962705013   -1.85053612567034
H          -0.66483099451882   -0.48593788414675   -2.03522612579278
O          -0.13756083857634    1.06870126911055    2.23874635071691
H          -0.39729576420772    1.71002414820307    1.55638015179899
H           0.66587369059825    0.63748476047740    1.87996049822068
N          -1.69503365462865   -0.88880092603424    1.44034803118123
H          -1.16863776097462   -0.11944844607330    1.95354684747383
H          -0.96531187945326   -1.40339870736531    0.88163990383284
H          -2.18953305072970   -1.50798603050455    2.07192852846944
H          -2.34872614787649   -0.41425504040146    0.73177979818020
