    26
        -50.46272987  Gyration_radius:  2.49990551841 Dipole_moment: 5.414
 S           0.96567488843787   -2.01895588713456   -0.04267804009914
O           0.69542965650627   -2.76071961086621   -1.23163303292052
O          -0.13692131100158   -1.97309325421975    0.91331549078244
O           1.38613315215494   -0.62083759524583   -0.32923152655399
O           2.18350359908402   -2.69006474737986    0.69541280246906
H           2.31432644542095   -2.16086833498017    1.49605768681243
H           0.07083581102301   -0.52392301253822   -1.36222878586698
O          -0.74175918349463   -0.52226065489719   -1.90927469636834
H          -0.75863776742795   -1.41984283903536   -2.25767357415794
O          -0.93594046187752    2.19970210016968   -2.00557458306523
H          -0.85512007713769    1.24456102254224   -2.18178345942033
H          -0.61118295653489    2.65369036250610   -2.78416948337694
O           2.20689970310674   -0.38819433166440    2.17577685980838
H           2.99242426695482    0.15474573090394    2.26750303126588
H           1.92673876409159   -0.31274521640934    1.24309072375432
O          -2.76418210755353    0.61143571810355   -0.39839206785198
H          -2.62109138070050    1.47461230929857   -0.80216033626652
H          -2.24307504838571   -0.00661502623998   -0.94249720275588
O           0.66934006624954    1.93165470591544    0.23363994668042
H           1.12580637327441    1.13465495561551   -0.08677724556871
H           0.11089211407109    2.22165363673500   -0.50976449626034
N          -1.00421864964083    0.36753808061249    1.59479880149198
H          -1.19305739327306    0.47537578661691    2.58450871358484
H          -0.62159505738903   -0.61670336889850    1.39370951301874
H          -1.86310092559387    0.47493518675632    1.00143955421169
H          -0.29812253038219    1.07026425376774    1.24458540662861
