    26
        -50.44514617  Gyration_radius:  2.6995545909 Dipole_moment: 6.286
 S          -0.00487296184300   -2.34054418067849   -1.99125573525450
O          -0.28367532122590   -3.62921505184518   -2.49264093931529
O           0.11606979288951   -2.20202724263396   -0.55304660093954
O          -1.05994539813033   -1.34603277357332   -2.49334103189063
O           1.33896923904903   -1.81928943679305   -2.62121317343113
H           1.72113328354916   -1.12733338256820   -2.06545305092896
H          -0.86103455830736   -0.39447656330886   -2.15395383961709
O          -2.04618267547945    1.09074276158688    0.64763392164945
H          -2.97819954160757    0.88171752396385    0.58430634528971
O           1.71447311068549   -0.13837858317248   -0.44994760739522
H           1.87563508549272    0.28821902527210    0.41629358740742
H           1.20901829841795   -0.95033590269422   -0.24576112568660
O          -0.47694707101326    0.91509259588002   -1.52759692275991
H          -1.11049356327670    1.01435407018899   -0.78271039070732
H           0.39276000931094    0.69007532202498   -1.12382468004711
O          -0.02084977238279    2.90934107691821    0.93029599265132
H          -0.86885231981866    2.43543182439290    0.96427563782999
H           0.15345186691929    3.06616122724871   -0.00138174972923
O           1.66742483735838    1.09259374351428    1.95348207450374
H           1.05375913038080    1.80653310603712    1.66146299323819
H           2.39903594660045    1.52792656839104    2.39257643479337
N          -0.75468292632874   -0.83434751054822    1.86066890274607
H          -1.60595425351158    0.33913647707618    1.16655546978885
H          -0.54187035825238   -1.49688004689332    1.11781842349159
H           0.12154782980347   -0.42670355583610    2.17183795877102
H          -1.14971772950013   -1.35176111166641    2.63491910514160
