    26
        -50.44514613  Gyration_radius:  2.69965619913 Dipole_moment: 6.291
 S          -2.27276882777216   -1.08012446563501   -1.76463719105971
O          -2.18546479962860   -0.37843769534928   -0.49882175706138
O          -3.50641566278750   -1.68667142319557   -2.08075477602607
O          -1.14797763326233   -2.12207377703198   -1.82696595454050
O          -1.89868348371344   -0.04926982690694   -2.89237559641139
H          -1.27071217188859    0.60232452193953   -2.55349172178224
H          -0.23575725457926   -1.69269346046650   -1.61818567006103
O           1.30911586158342   -1.46895265569328    1.38815227086124
H           1.21627009294196   -2.36457358974976    1.71323063179588
O          -0.32941143876146    1.36039646641713   -1.09555126507345
H          -1.08062736067020    0.88698456653912   -0.68572092336385
H           0.05365792271248    1.90444142385080   -0.37742323965697
O           0.83899553701303    2.42675975929764    1.09309224476237
H           1.62770446603707    1.83681967418692    1.05325724123212
H           1.17344395442351    3.31900519578831    1.19113186317925
O           2.86736422183656    0.69826344659013    0.78573048520456
H           2.49704309733639   -0.11398893431402    1.17032598128925
H           3.02267413694924    0.50073671428406   -0.14154595259595
O           1.00288769044460   -0.93751869613053   -1.22936922915114
H           0.66597336430370   -0.01242684704686   -1.20262645964458
H           1.15723907382569   -1.20295558125097   -0.29578864160896
N          -0.78621288316964   -0.03804192133322    2.02751522022174
H           0.49758653474299   -0.95051141069287    1.70497134902454
H          -1.27296591831908   -0.14647539654898    2.90759777278433
H          -0.49286141883076    0.93084902528405    1.95008652611510
H          -1.45009708073575   -0.22186513295139    1.27816680160722
