    26
        -50.46613044  Gyration_radius:  2.46876394446 Dipole_moment: 1.302
 S          -1.09973360138186   -1.76541980170103   -0.30523875645135
O          -1.60386745503278   -0.90308420018403    0.75005614143940
O          -0.16696942339232   -2.76011258287214    0.16910879432086
O          -0.58695359827804   -0.97920843609966   -1.42209005855824
O          -2.34622450973773   -2.55416930754844   -0.89013706780481
H          -2.45497719863755   -3.25780437506115   -0.25864660478151
H          -1.25629932416159    0.52963008532901   -1.17959527934103
O          -1.57446861886460    1.44618996954267   -1.02881495806890
H          -2.53089459870117    1.38799883690206   -1.04289785364502
O           1.99405135408224   -0.54896345615913   -1.50422655372152
H           2.35334440552057   -0.86187203120382   -2.33551397926578
H           1.03463893516308   -0.78026295610471   -1.51414886697140
O          -1.01504602121208    2.78326428200912    1.40881420749858
H          -0.61077449230234    3.58734562565651    1.07922362971257
H          -1.32583152885533    2.30270723891103    0.62519767798922
O           1.17390416291544    1.91125758812854   -0.57278938642563
H           1.62793966377685    1.16952106673959   -1.00844075396755
H           0.30839532172212    1.98310191003507   -0.99553464602254
O           2.03908616764094   -1.58450790482838    1.08671079830081
H           2.37522992411531   -1.27734578480725    0.23063547765115
H           1.29600959670241   -2.17989216185187    0.85392483327691
N           0.48175460001801    0.47879025088939    1.59492345731922
H           0.74501605421077    1.16798940173253    0.83972900530244
H          -0.43143745254507    0.02509843071181    1.33053926613566
H           1.20483261693817   -0.29355341796278    1.61436966901577
H           0.36927503032088    0.97330176982439    2.47484180706554
