    26
        -50.46925219  Gyration_radius:  2.44560113218 Dipole_moment: 5.369
 S           0.47566872311242   -1.28864741219304   -0.88172781640112
O           0.39240646068892   -2.31370883137862    0.13222227305883
O           1.34149068338530   -0.17139554399983   -0.45187345436863
O          -0.83584168496463   -0.77997823530846   -1.27961665472565
O           1.14799762463860   -1.90626729627567   -2.14350336058549
H           1.24736759954365   -1.14145300620824   -2.75018562064170
H          -1.90335273149480   -1.23796940455259   -0.06407726723375
O          -2.10903235576892   -1.60374973091078    0.82592239977429
H          -1.44331379563286   -2.30463653420297    0.89261223782568
O          -0.11129789091987    1.73121835482667   -1.40206339005020
H          -0.79739514136161    1.06818513909708   -1.58873184597492
H           0.57720475191820    1.16561575446215   -0.97344758291215
O           1.47344400196513    0.44653396394995   -3.35503333499306
H           0.84704343604543    1.05091978300166   -2.92156223313788
H           2.34052045964860    0.66952206117161   -3.00722821149433
O           1.41300896206230   -0.74828505465105    2.08532130227639
H           1.58464070801258   -0.38924386823089    1.18476769914429
H           1.23809645929038   -1.67854170444512    1.88601683144528
O          -0.91190398227310    2.59425831780445    0.98618001087450
H          -0.26220362430618    3.24686256399719    1.25214223878640
H          -0.69485240651504    2.36347363150532    0.04893543218739
N          -1.01243001773885    0.25776072969515    2.32561948981261
H          -0.00765578617623   -0.10428329348475    2.34920861270648
H          -1.56966158271643   -0.45915070312148    1.75636313299257
H          -1.39433396471614    0.34856080596024    3.26098657616675
H          -1.02561491487295    1.18439950744679    1.83275252928626
