    26
        -50.45274368  Gyration_radius:  2.6799859577 Dipole_moment: 3.932
 S          -0.91255141344007    0.46722852391653    2.51340446319570
O           0.29283499516320    1.28202098865443    2.66708783749468
O          -0.64394270890813   -0.94661063487504    2.67950142606638
O          -1.61229620394712    0.78441054694087    1.28115296047745
O          -1.89115897148604    0.88633131562703    3.69310925254118
H          -1.46142496151092    0.53202976197135    4.46640150104471
H          -1.51059322972555    0.80878489972205   -0.29801023454425
O          -1.36794641721545    0.88075194139689   -1.28055856096469
H          -2.02304417048911    1.51068659047381   -1.58458823305459
O           3.10372821959911    0.77516147768396   -1.55099057544221
H           3.92764021016249    0.31187016496695   -1.70303931583053
H           2.41030539287520    0.28876997178495   -2.04238796222972
O           0.89513291238521   -0.60527857221507   -2.36261488685750
H           0.86450336770242   -1.29511768230403   -1.68863085084047
H           0.12485968906952   -0.04482992472761   -2.19737148955808
O          -1.79711375444308   -1.85780291268592   -1.47316298382269
H          -1.86531479523878   -0.88816616767598   -1.47406593423936
H          -1.58288305823173   -2.12743559574444   -2.36840460706330
O           0.26389744930613   -1.64545366923776    0.32744078025410
H          -0.54459971950910   -1.86571157054149   -0.17361720586195
H          -0.04247740429588   -1.55573081351797    1.25992233299445
N           1.10003160157152    0.88123562894965    0.25861478388583
H           2.05508751495342    1.00290716162341   -0.11759946536754
H           0.43907940449759    1.39048779165220   -0.33011331388776
H           0.82997549028469   -0.14637386869730    0.22708572945640
H           0.94827058086648    1.17583463687806    1.27143457217029
