    26
        -50.47376039  Gyration_radius:  2.3879776732 Dipole_moment: 3.935
 S           0.56850913649321   -1.52978116817347   -0.84843298782567
O           1.42688871142872   -1.05454354842957    0.22424706535316
O          -0.55485481950857   -0.62878044467588   -1.07237613008210
O           0.20689278592005   -2.91612320977341   -0.74307946961626
O           1.43978479208341   -1.40253835720345   -2.18710503217621
H           1.84628584568552   -2.26129612320416   -2.23212389942877
H          -1.16379116739818   -2.70851385049903    0.29160160692754
O          -1.86458926997073   -2.28241723769497    0.81966679301669
H          -2.33178928926288   -1.71283641847638    0.20402945768122
O           0.69974489519313    1.43494830412294   -2.14443913476851
H           0.23432709177211    0.63209172255111   -1.82879509617600
H           1.29665566615864    1.12551193693655   -2.82784948469271
O          -1.88884900011755    1.61615687855100   -0.45493180885058
H          -1.57182839477770    0.72126397222882   -0.67998185207494
H          -1.52082491545022    2.18155863299965   -1.14018057964612
O          -0.18060672388375   -0.86912117638108    2.35461960317425
H          -0.92232351775418   -1.40864090369633    2.00847773624940
H           0.54948225214637   -1.04565725782987    1.73088779241445
O           1.86576758258953    1.57075983458287    0.29708702370552
H           1.90343641558049    0.59200103148485    0.32946716723400
H           1.55778285766421    1.76281000206315   -0.61037233106365
N          -0.33292796134464    1.66397448316123    1.72472453607355
H          -1.06854543958067    1.75992986140406    0.98422163443585
H           0.61261062505762    1.76419682078105    1.23500617687453
H          -0.45079680897197    2.33813685073159    2.47177288041282
H          -0.35644134978725    0.65690936439051    2.09385831287273
