    26
        -50.43716563  Gyration_radius:  2.62749783777 Dipole_moment: 5.578
 S          -0.53145371614174   -2.44850771918862    0.40528953272968
O          -0.84867241717698   -3.77587322665764    0.77019865691958
O          -1.00760268906803   -1.39110124414331    1.26357835598044
O          -0.99398360174814   -2.12705703746142   -1.04898280159812
O           1.01549190834301   -2.31529778305789    0.27723688072431
H           1.21139438936783   -1.62149533334928   -0.41849999951621
H          -1.50852089911909   -1.25827515112703   -1.01119241337713
O           0.12949768583776    1.59555186034058   -0.73316774264278
H          -0.29583553861783    2.45749477039577   -0.81265004722188
O          -2.06653646690539    0.14359926437374   -0.60821963886773
H          -2.01632101848228   -0.14593779507429    0.31748913015821
H          -1.25195549009029    0.69960045387476   -0.73947179744664
O          -2.24521883921866    3.08316491076654   -0.78363323144970
H          -2.91508557355252    3.65785305324141   -1.15571341596881
H          -2.62238557084674    2.19481068879540   -0.74884417110679
O           3.13984052669712   -0.51907229039761    1.02937944405755
H           2.73881147409332   -1.38895348554875    1.12538776129480
H           3.18670815715925   -0.35337846760372    0.08393516015291
O           1.46392986312489   -0.55868673406426   -1.57452869306543
H           0.96170376954401   -0.90022272156144   -2.31857141898550
H           1.06711820563452    0.30738028382001   -1.34374794412625
N           0.69320996541315    0.93764784807619    1.71604309197776
H           1.65276525773843    0.59451846697077    1.70121067763919
H           0.08813968079986    0.12738326319149    1.83394571814440
H           0.58430365395737    1.53370867308948    2.52578295435555
H           0.37065724321929    1.47114543233993    0.24774593118145
