    26
        -50.44571768  Gyration_radius:  2.51365738965 Dipole_moment: 3.158
 S          -2.10537373032171   -0.16517296092483    1.03315895139121
O          -1.02276323441615    0.59827996244039    1.61204557812963
O          -1.77928774900045   -1.50239905383997    0.66824288722866
O          -2.74160293934981    0.61116358588617   -0.09101025727131
O          -3.26146256588166   -0.21842253627182    2.09775145316060
H          -3.41970878266953    0.69598188754443    2.31469818108741
H          -1.99273789238981    1.03599621082400   -0.82694256140454
O           2.46342168580611    0.57470500926181   -0.37238721549737
H           3.41479178887275    0.46912190060220   -0.39374694077433
O           0.76685334839493   -0.31755179133202   -2.22478346796566
H           1.17376266382009   -0.29263676179950   -3.09225333852596
H           1.44279603875153    0.00418844096608   -1.57972447963094
O          -1.05992328042851    1.53158073375159   -1.60278979225273
H          -0.50521769159947    0.78269817470426   -1.92448255165741
H          -0.47094641886608    2.03397423954993   -0.95649863385249
O           0.49656455186373    2.40863241283540    0.26223224711931
H           0.02824254684231    1.87941061999000    0.93053953490746
H           1.31950603181025    1.92577955629133    0.07555778505015
O           0.31601040879957   -2.70446245764863   -0.67936097649422
H          -0.53112209447134   -2.52691366891138   -0.24680270302208
H           0.39813582797573   -2.02419647596368   -1.36023291167571
N           1.41169093451913   -1.01632158846532    1.36642108780561
H           2.11335598281808   -0.05135776692511    0.36433523990454
H           1.84955536518579   -1.35952288198085    2.21106472758020
H           0.54404124389512   -0.55202781531882    1.62452586699665
H           1.15141796997326   -1.82052695537537    0.79044227958539
