    26
        -50.46666864  Gyration_radius:  2.48573325081 Dipole_moment: 3.120
 S          -1.34850705973894   -1.56475906065846   -0.67128826176131
O          -2.45228105152359   -1.33032772057442    0.24839497874757
O          -0.15618012620129   -2.08131218342154   -0.04891046197444
O          -1.07150704483052   -0.37509151925541   -1.47718137675040
O          -1.85761865618256   -2.67568251094777   -1.68169707708913
H          -2.75936004170957   -2.41428167243064   -1.83928276203704
H           0.56101022521660   -0.44127065375469   -1.60571057070415
O           1.54560538997752   -0.47668347403031   -1.60549082153868
H           1.74503652042442   -1.40645022710680   -1.47163136021345
O          -0.84677545191977    1.96901761652497   -0.21121275318684
H          -1.04975749926152    1.20309583917853   -0.78521308167864
H           0.05948891215405    2.22768110782219   -0.45844491388657
O           2.40568595163371    0.46312072791778    0.86512301493006
H           2.17800662832585    0.05068009068018    0.01178486803252
H           2.38953559056266    1.40930757428417    0.70065585588514
O           0.68597688285673   -1.03192679891717    2.28331998590096
H           1.44286166857686   -0.50823827693332    1.94902220697054
H           0.45055218493241   -1.62143237210024    1.54008712454731
O           1.67200660707707    2.29591354041361   -1.28534151708133
H           1.66171722372136    2.83258359725865   -2.07902623411050
H           1.74451636466199    1.37227617561141   -1.57549952535451
N          -1.41067983227877    0.44289409592488    1.86802266890773
H          -1.14427937403618    1.20099607543571    1.18103709365217
H          -1.94381315308107    0.81059413495986    2.64794708507692
H          -1.97074305848794   -0.26046305473921    1.31267250868851
H          -0.53049781087461   -0.09024107114382    2.18786332602599
