    26
        -50.46390582  Gyration_radius:  2.53264274757 Dipole_moment: 3.396
 S           1.04850150902433    1.21801813817884    1.55736213856627
O           0.80088622790946   -0.01697141602792    2.29474693331355
O           0.22844056816946    1.28702932536591    0.36001131567691
O           2.45124208426954    1.47507285929398    1.33911374086061
O           0.52198377148803    2.40080629309493    2.48428422529559
H           1.25194199574071    2.54473135215137    3.07828176492653
H           2.64550548833820    0.21669652196852    0.28662674751317
O           0.72172805286801   -2.21208907237469   -0.80976729556400
H           1.13259331959471   -3.05763979626503   -0.99425133207718
O          -2.47243001512652    0.51436374012408   -2.36666933520454
H          -2.69127773045002    1.32027359003340   -2.83589253364569
H          -1.49193613245290    0.42082494812319   -2.42188365925952
O          -2.37549463867383    0.65691432470549    0.31256756453680
H          -2.56835967811080    0.59826333491888   -0.65018309084453
H          -1.53529844987275    1.15061903243734    0.37703171421935
O           2.62588022096341   -0.43602642121323   -0.44600514310838
H           1.46101808829802   -1.59274752499108   -0.57337121467114
H           2.57845024860187    0.08925371014521   -1.25074587810902
O           0.17680456394054    0.27017264665841   -2.13814461923328
H           0.25570016922172    0.73336080848778   -1.28202178030685
H           0.27700648195078   -0.66799141182258   -1.93158807947698
N          -1.02821206607900   -1.41436219580276    1.12379668142824
H          -0.51783685341831   -1.85071799175063    0.33431290569631
H          -1.49187699042491   -2.10886383958937    1.69810656126106
H          -0.29223035896702   -0.87589745629250    1.68714341113027
H          -1.71272988679944   -0.66309349954924    0.76713826707697
