    26
        -50.45806845  Gyration_radius:  2.8012837453 Dipole_moment: 4.089
 S          -2.56157486172285   -1.29404308107285    0.36009270362391
O          -2.07202167938858   -1.58981254963151   -0.98586232143456
O          -3.19265383055155   -0.01554670840402    0.49391935818588
O          -1.47966970703389   -1.48762986119637    1.34169740753295
O          -3.64048075526396   -2.41950514339118    0.66472129925831
H          -3.32464187984007   -3.16905199837093    0.16814957745134
H           0.10322073199794   -1.74866883199866    1.03697072865522
O           1.06219613101100   -1.78305305351443    0.79185799577893
H           1.39015427884483   -2.62630005252640    1.10505536449324
O           1.88285557800419    0.77553614955015    1.50750014324048
H           1.74568359717885   -0.17484880299076    1.35934459752747
H           1.01172672210237    1.12638163205276    1.73267517511385
O           1.23280264365469    1.61396719464907   -2.74383159446471
H           0.85892635443805    2.44379374610353   -3.04318900850773
H           1.88781421495410    1.84099359176365   -2.04553749498312
O           2.77869919747315    2.11716568785103   -0.62997706412958
H           3.73437434131273    2.06344855526666   -0.60339136626814
H           2.45808306460316    1.65932656077905    0.18175617042687
O          -0.89320678354697    1.08439726472201    1.35751184279729
H          -1.08555497696363    0.14890067871329    1.58652506347840
H          -1.77363737443291    1.44928162307479    1.21251189146885
N          -0.01939621130259    0.00929398018597   -0.99338927574851
H          -0.86450905717148   -0.59473770697423   -1.20211447011137
H           0.71286743184838   -0.62641899935860   -0.65476169832234
H           0.33466343124961    0.56900548657642   -1.80283233442811
H          -0.28672058134590    0.62812460846290   -0.19540269072948
