    26
        -50.46563652  Gyration_radius:  2.42385496966 Dipole_moment: 2.920
 S           0.75881029004362   -1.52881681778794    0.33025065423801
O          -0.04874219610447   -1.83486812803920   -0.84233989094032
O           0.29889337667615   -2.15263123940468    1.53380728272289
O           0.83667367719233   -0.04941222275486    0.50861518138418
O           2.20830771791031   -1.98969449625473   -0.02546607314119
H           2.78825521932225   -1.57980632938964    0.64672799476538
H          -0.59714120682454   -0.06529827615882    1.50999118636865
O          -1.50867396433110   -0.09204815881385    1.85675808830709
H          -1.52063177745026   -0.90300385012205    2.37416451094684
O           3.23730879590126   -0.20883758157676    1.64735243110031
H           3.85027926850439    0.42144611705301    1.26137917462818
H           2.34088843026911    0.08938717767031    1.41010527453556
O           0.94369946854012    0.40230515524304   -2.15500888601546
H           0.80858797378348   -0.49897239072088   -2.46176204983796
H           1.02104705918508    0.31403218353729   -1.18929357442245
O          -1.37753463885753    1.73705287462894   -1.89130136946212
H          -0.52392202299786    1.37764738298536   -2.21916111295515
H          -1.12707152296268    2.25769489510763   -1.10149090856511
O          -0.47237386965239    2.42011054673661    0.55791082846793
H          -1.05727797986461    2.24938456554620    1.30040675713210
H           0.14492071677881    1.67381400111235    0.53530533008097
N          -2.23696024649849   -0.41453925639005   -0.72264884752032
H          -1.42468071233378   -1.08099065005143   -0.87264935653928
H          -2.23948497066391   -0.22532252884521    0.30331543818776
H          -1.99167368069364    0.50085793401780   -1.25770227176030
H          -3.11150321492006   -0.81949091719133   -1.03726578139004
