    26
        -50.46457018  Gyration_radius:  2.43710065298 Dipole_moment: 2.716
 S          -0.70333667859363    0.42669944098959   -1.95023830050512
O          -1.25007011947525    0.03900233741053   -3.21018297514355
O          -0.75859157564501   -0.59792909345688   -0.91316878384961
O          -1.67633378763372    1.59849117993398   -1.40547297403890
O           0.62602256907673    1.02309309407603   -2.00734855529528
H           1.65762654578254   -0.19521040137790   -1.62759315034233
H          -2.09679838298172    1.81089184872217   -2.23109725992740
O           2.12124481003001   -1.02409723631519   -1.36520624228170
H           1.73199495885967   -1.71437874628356   -1.90529610574407
O           0.63069383095304    2.56568986201036    0.12640643114528
H          -0.20911631154130    3.01437462454155    0.01041888851752
H           0.74464904402197    2.02093937352851   -0.68081501188008
O          -1.91206128370376    0.25829437425466    1.28505230217818
H          -1.51220773844420   -0.01695883746331    0.42813873039093
H          -2.47520094913608    1.00388195706384    1.07239497503884
O          -0.86156642659805   -2.55029415525343    0.92082809001130
H          -1.48590172448676   -2.10246994374712    1.50072526450614
H          -0.92986001970183   -2.07383656439273    0.07473247405108
O           0.55993218717475    0.88437613252924    2.19647943752928
H          -0.39076408351155    0.67963487749454    2.08869709835061
H           0.73152066927609    1.58556697361694    1.52939852372870
N           1.51353902409185   -1.33989347015185    1.22372664397387
H           2.26391873116064   -1.76296718838380    1.75820097646861
H           1.21581459580953   -0.39612616129242    1.65173388867269
H           1.80820989509758   -1.18877682808851    0.22246194714012
H           0.65664220017347   -1.94799744996174    1.20702370729843
