    26
        -50.47064884  Gyration_radius:  2.41851411975 Dipole_moment: 5.149
 S          -0.87526463053147   -1.63440321809324    0.76572170207830
O          -1.20906891024966   -0.66861766994196    1.78612376296196
O           0.52911437030475   -1.98246707344315    0.70596509211868
O          -1.38801665297500   -1.23173077486256   -0.54864031436288
O          -1.62885372610609   -2.97666737595981    1.13695506223018
H          -1.03088553624619   -3.63100096378026    0.79258514282073
H          -0.54705021130695   -0.60600925385533   -1.76846181735132
O          -0.07079579415080   -0.11656841883509   -2.48862170993234
H          -0.48829026789008   -0.38168930824165   -3.30928201098534
O           2.20685443728732   -0.60957571016282   -0.88870933753684
H           1.69294427937789   -1.19135629905266   -0.29546644859596
H           1.65348261095018   -0.49658332832146   -1.67136883459503
O          -2.38599349510335    1.09825683410244    0.19132210144170
H          -2.23558343343128    0.22139429131409   -0.21883790131404
H          -2.24628093905396    0.90354894466740    1.12816272185231
O           1.21756834740999    0.06461473676691    2.55508616552224
H           1.67426930538590   -0.74065345599923    2.29389606663770
H           0.27334699882886   -0.13925316208568    2.41130597035261
O           1.89783854118861    1.62304418873063    0.51481700626776
H           1.67236968325344    1.21146836714073    1.38269556554957
H           2.23348475385248    0.86504354217617   -0.02059920661649
N          -0.19589751070791    2.10914594290798   -0.89952157178328
H          -0.09051302479234    1.43388854745747   -1.67888933659457
H          -0.24232718487908    3.06150191648581   -1.24390930237100
H          -1.08884721226959    1.84132158103643   -0.39197760317395
H           0.67239522185314    1.97334710985063   -0.24035095462539
