    26
        -50.46737600  Gyration_radius:  2.46905134871 Dipole_moment: 5.845
 S          -1.09388955608698   -0.90484426344717   -1.47356458472862
O          -1.03905325526609    0.53082823426540   -1.63602905382738
O          -1.86254490755858   -1.32454361553007   -0.30911946158359
O           0.22300406075531   -1.52481972155080   -1.49166203361896
O          -1.88117729799306   -1.46559436142284   -2.72545538326255
H          -2.15600938165476   -2.31912590340901   -2.40958444861079
H           1.05653236078970   -1.70848721539892   -0.13468633070398
O           1.54657275654345   -1.79980590561772    0.72463622650509
H           2.14497968087386   -2.53963628391864    0.61294739174467
O          -0.02587316741289    1.67759293128581    2.04338414924930
H           0.85414480986552    1.58284266820268    1.60097431181383
H          -0.61036728791687    2.11290316168310    1.38265472280251
O          -1.51588950425226    2.56487559073164    0.01580356955845
H          -1.45228697360016    1.80196156159884   -0.59268973322692
H          -1.16972689856280    3.31518245396795   -0.47120808343197
O           2.13708294228267    0.97665817464306    0.69064629629816
H           2.13866350296909    0.01623771296134    0.80271892157374
H           2.01741256204080    1.12006921311751   -0.27134037369703
O           1.57770128389821    0.91267589221648   -1.95622170262454
H           0.60316459955400    0.91314646925167   -1.91922578994307
H           1.79935947651050    0.00680236047778   -2.18845338274164
N          -0.66977007336657   -0.80307603418847    1.96371738858345
H           0.22514721880522   -1.28973732645467    1.80004013904396
H          -1.25075015660637   -0.96718726453709    1.09531349706797
H          -1.14198825195328   -1.16210384280189    2.78568276908963
H          -0.45443852266233    0.27718532387351    2.06072098867037
