    26
        -50.46029928  Gyration_radius:  2.48873903978 Dipole_moment: 7.198
 S          -0.96396761155513   -1.73977385305202   -0.59158752924315
O          -2.23086343095496   -2.34867797010325   -0.29586929321424
O           0.01561892779742   -1.93715653260890    0.49690956922394
O          -1.07681108541213   -0.30997176435244   -0.87051037383522
O          -0.35936868336028   -2.41866648766286   -1.87104695019489
H           0.30996254472424   -1.81016069903339   -2.22752139474678
H          -3.13717863276045    0.40020600318746    0.04826575945265
O          -3.21001055037125   -0.15806258458057    0.82928243962378
H          -3.04775518274709   -1.06402639933617    0.48076267652891
O           1.16957822978216   -0.10454575270652   -2.14097851727013
H           0.27939828673999   -0.02799197097763   -1.72954683200674
H           1.77356393695091   -0.33967828657652   -1.40254011155842
O           0.99018309841822    1.91584461892694    1.17003036724779
H           1.12271773288896    2.09873658597998    0.20350478952790
H           1.01115551917042    2.77382218626933    1.59701444678686
O           2.31162218783300   -0.58847786045361    0.24016903906434
H           1.58917138048485   -1.22562901791572    0.40595990617135
H           2.09445011794405    0.19976763013009    0.75011146493815
O           1.57480554896140    2.43665296213166   -1.36217798741512
H           1.38559507499136    1.59372017571007   -1.83464247049583
H           2.50590911853210    2.61476192160012   -1.50779335568559
N          -0.82109300895332    0.02688245405129    1.95427201364456
H          -1.81824717796567    0.08606612807063    1.58330768282399
H          -0.42233334176715   -0.84420548682759    1.47575290270395
H          -0.24379713436327    0.83409691955980    1.63379201375436
H          -0.80230586514571   -0.06353290952900    2.96507972412328
