    26
        -50.46350487  Gyration_radius:  2.54599481594 Dipole_moment: 4.025
 S          -1.02013905363908    0.46997454991783   -1.32032487987058
O          -1.95142060022677    1.05756477925491   -2.23611214163857
O          -0.99106823281390    1.11391680906084   -0.00606783028078
O           0.46245552805567    0.74652612923273   -1.90019699260009
O          -1.08105242052260   -0.97668647725580   -1.19626822190612
H           0.39914123059416   -1.69002990900456   -0.98092594388044
H           0.36706975700068    1.70693292891260   -2.08182118231483
O           1.29909014989634   -1.91885748807934   -0.65489597539268
H           1.91046597348803   -1.55832116926975   -1.30001592529071
O          -0.45745349627612    3.19176803602610   -1.81372806890851
H          -1.23203121755799    2.75342686915525   -2.20863607530273
H          -0.61389627881469    3.13039824390076   -0.86430449961309
O          -0.70708267587989   -1.41101045968432    3.19530898326972
H          -1.18109626070590   -1.83798699909213    2.44390495987528
H          -1.36418487774061   -0.87975904027898    3.64788246250052
O          -1.87933218222364   -2.32551076906996    0.97702527764236
H          -1.68441982924472   -1.76868438481210    0.19629086834579
H          -1.68416271389473   -3.22443356288005    0.70511115333881
O           2.54846842091355    1.30596308096848   -0.09175682749310
H           1.89070686645787    1.05775718379037   -0.76030597479566
H           2.99065288112069    2.08806873849570   -0.42413421112867
N           0.81100991162840   -0.20458113639716    1.36003238459555
H           1.10547119299069   -0.96394886566414    0.69763519025796
H           0.05528390497087    0.35758298029347    0.86689786869914
H           0.39483273738429   -0.62362617730637    2.22414273860702
H           1.61269127515297    0.40355611002894    1.52526289349858
