    26
        -50.45983139  Gyration_radius:  2.56161604752 Dipole_moment: 4.626
 S          -0.14116150700773    0.48212834860355   -1.87713170808741
O           0.53858193133540    0.43642645127016   -3.13854426156706
O          -0.82647861959617    1.73674660019608   -1.59851700717984
O           1.02387620796254    0.42807390932188   -0.72846103724166
O          -0.96437605554737   -0.66864366946065   -1.55447098127875
H          -0.64655302048557   -1.95111553075120   -0.62303943463512
H           1.54586112544009    1.21520092873195   -1.01182208174605
O          -0.53749446684636   -2.58949771697531    0.12668993342013
H          -0.94887230002689   -3.40717176514548   -0.15519909166373
O           1.76700880390929    2.52850773498733   -2.05632833373301
H           1.59742574911669    1.92406314657123   -2.80042309082285
H           0.91629523682734    2.95932432740096   -1.90733904345968
O          -2.76057202442431    1.17599643321344    0.04888859069245
H          -2.09045413794882    1.51369792314508   -0.59980023276503
H          -3.29176316557656    0.55524842535724   -0.45455375700733
O           1.87616409458404   -1.58775299700102    1.11831301387869
H           1.92487530383103   -0.92985152664990    0.41362951370081
H           1.17800510686452   -2.20000782388428    0.84072960672964
O           0.89992738341511   -0.31836504219873    3.29907865866991
H           1.37880979236886   -0.84940309238057    2.62472547615575
H           1.56628683798818    0.09821274349978    3.84546392374128
N          -0.81637092929161   -0.10233924915451    1.26622869323787
H          -1.69924169930150    0.42010276152789    0.99980544811347
H          -0.94536399918959   -1.11609502302058    1.11496938133733
H          -0.09416632654217    0.19341136513247    0.58554574304524
H          -0.45024929170296    0.05310234763338    2.22156207850400
