    26
        -50.46629283  Gyration_radius:  2.50677552556 Dipole_moment: 2.750
 S          -1.82620962285856    0.34405288526471   -1.04612100960385
O          -0.61959970619573   -0.26659763789761   -1.59210842926486
O          -1.55840810204046    1.67056141128289   -0.52287228248569
O          -2.51211873235519   -0.52764283763895   -0.11485607939337
O          -2.82051387534073    0.54133033717492   -2.26547493202914
H          -3.20730109242499   -0.32540213464229   -2.32817807525798
H          -1.66049598740274   -0.47050460429054    1.22490348357866
O          -1.14150296122453   -0.42234748366651    2.07003244071278
H          -1.76864171392661   -0.14163427544224    2.73850061273394
O           1.76372855974153    0.64605318266661   -2.35638277598322
H           0.84652259002421    0.30461488571399   -2.33670955220861
H           2.29144869127438   -0.07042906376123   -1.98830552940646
O           1.41992237222923    0.45648880802165    1.57902566127124
H           0.52575016204551    0.26522675432788    1.91127820220476
H           1.59750478777278   -0.28484618490593    0.94641687693934
O           0.24590062153874   -2.81193971677839    1.82458052528190
H           0.81286051931430   -2.84428503732130    2.59708480711615
H          -0.35409541223444   -2.05609870296331    1.95366077759383
O           1.40728222134968   -1.45850538533386   -0.24892394593424
H           0.62702999570998   -1.14772829046480   -0.74578447323451
H           1.07015639665294   -2.16199028572324    0.33514151493072
N           0.98854903379471    2.18655675704904   -0.32767465471661
H          -0.06199705129757    2.08240578786639   -0.43798056141754
H           1.43022122884971    1.73207561033209   -1.16968773084536
H           1.25610567087434    3.15908300760094   -0.23145679327531
H           1.24790142613137    1.60150221353141    0.53189191269523
