    26
        -50.46194934  Gyration_radius:  2.51111324459 Dipole_moment: 2.285
 S          -1.68679765292539   -1.62488482227942   -0.20771301688535
O          -2.26351799224499   -0.53887862434166    0.57039994991086
O          -2.59664139040510   -2.34548999832050   -1.03690249416361
O          -1.14128150571818   -2.69286972764805    0.86835069548459
O          -0.47725129881346   -1.15091371021406   -0.89395080181280
H           0.13529502818163   -0.81575088108699    0.61089515576943
H          -1.72228801148672   -3.42567571082763    0.69448189196305
O           0.58693288833102   -0.62018998857172    1.45881110967867
H           0.37122822892740   -1.36467772040865    2.02372801208963
O           0.60924899861073    2.01468942598859    2.08425606422936
H           0.61055048682577    1.03754978147066    2.08773006099174
H           1.40885159720430    2.26849872527768    1.61392098826157
O           0.14076717301412    1.35414784141733   -1.68205953246876
H           1.02720052909520    1.33014095723620   -1.25331376017788
H          -0.14607947603109    0.42290402451848   -1.66181666682873
O           2.06121336495488   -1.43971133195100   -1.87458566280655
H           1.98079591002588   -1.46846954082874   -2.82906905783589
H           1.15505846172029   -1.49379231601892   -1.52536719896691
O           2.35220381703136    0.76014708945126   -0.26316003035214
H           1.95155271873230    0.26778719737950    0.46716128525732
H           2.58670899004150    0.06320357711159   -0.90001444634150
N          -1.40941844287610    1.92153343044652    0.33592638782798
H          -0.83445019382398    1.85507763817427   -0.56618955864797
H          -1.82056390418756    0.95176595737692    0.48059230691254
H          -0.73575137939707    2.11614930219207    1.11710517688488
H          -2.14356693484486    2.61770941447845    0.28078316203355
