    26
        -50.46426611  Gyration_radius:  2.49066551433 Dipole_moment: 2.114
 S          -0.27989876721435   -2.15600664458180   -0.83358566863464
O          -1.63834037339636   -2.15625081566768   -0.31174759384996
O           0.73507531190616   -2.09667355685092    0.19538219953240
O          -0.10239617540185   -1.12173961489069   -1.85030341301524
O          -0.08838164455842   -3.54450345669060   -1.56876229636704
H          -0.88521473670545   -3.62434259693757   -2.08350730346376
H           1.53408674078860   -0.57943599235511   -1.66450371584017
O           2.33535486846313   -0.41767831100139   -1.12806011059643
H           2.29405621921469   -1.14444168464607   -0.48985816086026
O          -0.79306343402485    1.36214616657167   -1.18109601206736
H           0.07398141323652    1.64725192295733   -0.85585534046350
H          -0.62979205948857    0.49385092312534   -1.60268520923669
O          -0.92236431969847    2.81575928377370    1.35192551177456
H          -1.20674699535806    3.20920190173332    0.52426124455760
H          -0.00440070623520    2.55395524530160    1.22377669277215
O           1.63462359087749    1.68163727224857    0.25851758461175
H           1.96385899901381    0.90643249325553   -0.28323877373088
H           2.37327583857888    2.28960970613387    0.31479920006965
O           0.57844728479879   -0.20180630880308    2.07467368566524
H           0.72194854344870   -1.00614501534497    1.53651426989241
H           1.08720270542560    0.49953887312300    1.63968196380006
N          -1.78738818468154    0.12281240332441    0.96200777933902
H          -1.55303523511226    0.79035958842831    0.17894016149054
H          -2.60989920641388    0.42743723059684    1.47099922565076
H          -1.89475685117622   -0.83221870727951    0.52522023090704
H          -0.93623281625186    0.08124971447116    1.59650383804568
