    26
        -50.44004462  Gyration_radius:  2.63013102792 Dipole_moment: 3.244
 S          -1.38677273462038    0.45676260779796    1.39750959610203
O          -1.91090365757864    1.09843446477671    2.55291628297452
O          -1.08432324990280    1.33552556548493    0.29165625345307
O          -2.39461234797445   -0.63019364509005    0.86417148934900
O          -0.18073627341737   -0.39900034168417    1.74033698011115
H          -0.04056337879029   -1.11598805515423    0.97204834659812
H          -3.21077629733112   -0.11763708702082    0.68060101600282
O          -0.16067898450573   -0.13750102222912   -1.82509158176139
H          -0.56028462897881    0.53312865437533   -1.24884662344103
O           1.59100834120233    1.85022554096405    0.86133660189163
H           1.66017083178455    1.20112682975685    1.56510454731004
H           0.65750932426236    1.87377196339334    0.61050095650561
O          -0.02752936592895   -2.00333576615305   -0.15478307244247
H          -0.88630131545410   -2.43297624735074   -0.12921475824579
H          -0.07806060326717   -1.29539668606963   -0.92808665528949
O          -3.91309365792731    1.49248044581960    0.71340745321816
H          -3.62759028323216    1.70983544748616    1.61050794883550
H          -3.36896458127151    2.02549566027535    0.12527764918470
O           2.80226283084125   -2.27386834430964   -0.51498384907134
H           2.95070909660907   -3.07960068455184   -1.01246786764456
H           1.86803356121153   -2.26920870777138   -0.26876462655558
N           2.37197393262708    0.46686857639518   -1.60635537603265
H           2.96192083287593    0.87605894375524   -2.31829459737149
H           2.80898094553538   -0.39247523458718   -1.28333174465929
H           2.33847087040182    1.10587167505732   -0.81364295135348
H           0.82015082282964    0.12159542661810   -1.88151142768731
