    26
        -50.46727883  Gyration_radius:  2.58495969973 Dipole_moment: 1.497
 S          -1.25119712474726   -1.67655392436054    0.33969120357168
O          -0.08396316209546   -1.05321387649006    0.96023716629331
O          -2.41727750669267   -1.69429692370910    1.18055436826119
O          -0.84649615894530   -3.20003019106439    0.11887153737719
O          -1.46856073721368   -1.11702518640865   -0.99020338507544
H          -0.22184279818703   -0.54974578442247   -1.83599672226035
H          -1.54462415948193   -3.66602115586849    0.56715338939625
O           0.55164743280387   -0.11662996210744   -2.27952296348323
H           0.35476517039776   -0.11732304470885   -3.21697302395239
O          -2.75213515383229    0.83630825465720    0.34125330860714
H          -2.45278795968812    0.37707095675346   -0.45655436379468
H          -2.87656656375420    0.10601947249399    0.96658430194193
O          -1.19840984854199    2.96079418472409    0.80808315895638
H          -1.86504245561279    2.26142035367945    0.61890223067236
H          -1.38342539563642    3.27123277718839    1.69538973962490
O           3.32615980598952    0.75464076957152    0.64440064458897
H           3.10000781041417   -0.11188731696805    0.22423633807022
H           3.65947997636491    0.54576668140184    1.51772512755427
O           2.23236401808512   -1.43330548904083   -0.41442875434063
H           1.45053586410322   -1.51848354812822    0.16000170769418
H           1.88233596913187   -1.13538706216086   -1.26549989762842
N           0.76541452008561    1.28753756412439    0.06443151273346
H           0.37886871075140    0.40995739334334    0.50187786356179
H           0.16301003039523    2.09093312801983    0.34166908192119
H           1.76266486218671    1.36464056186200    0.36089440382490
H           0.73507488371612    1.12358135753407   -0.95277797411650
