    26
        -50.47250317  Gyration_radius:  2.48726489621 Dipole_moment: 2.883
 S          -1.77190146466649    0.27799360456509   -1.38792785421092
O          -1.33631949230682    1.03209224654897   -0.22815128717896
O          -2.04161602121688   -1.11705958343483   -1.06157839742029
O          -0.88558318895698    0.40845101977370   -2.52861826601522
O          -3.15544168147443    0.91039389705656   -1.83019220928781
H          -3.29853220565639    0.47282243565335   -2.66229492830553
H           0.62022758148773    0.01589339021768   -2.18614702211639
O           1.56373597910138   -0.17178386887127   -1.93945013413715
H           2.00033236500778   -0.43656799521066   -2.75044632853516
O          -0.92326332251374    0.43177020562273    2.37133946876137
H          -1.23493151400732    0.84391886611066    1.54445205223183
H           0.02458371893645    0.65425222604773    2.41822273538380
O           1.13538775992730    2.04322266872441   -0.30752856827286
H           0.17821991830654    1.84148268884108   -0.32383433648922
H           1.51563877841930    1.46326891982862   -0.98349757638401
O           1.76216247952462    0.86905097717738    1.93151415372896
H           1.55858494469138    1.39143924183165    1.10193894465323
H           2.39898832432888    1.38452508418548    2.42670764998971
O           1.80223286465456   -1.45865447380469    0.45971292985567
H           1.78331683104243   -1.07199794331905   -0.43618099431290
H           1.95410450360554   -0.70690975882478    1.06050030724914
N          -0.73643293278280   -1.84615810551071    1.07399642080190
H          -1.01976340760493   -2.73309954043027    1.47390029571417
H          -1.30010340432868   -1.62362642002236    0.20282592196488
H          -0.88740431721796   -1.03433747937617    1.74606611423775
H           0.29377687371076   -1.84038231341722    0.81467090810578
