    26
        -50.46908612  Gyration_radius:  2.47615083451 Dipole_moment: 2.325
 S          -1.95472414577308    0.68262100728070    0.33017291289930
O          -0.58906418923597    0.68134957533301    0.84851788225037
O          -2.21175552168183   -0.52318642267996   -0.44985869644193
O          -2.32630761197110    1.90278333987932   -0.32514506590823
O          -2.87666230648852    0.55964819619341    1.63511329643057
H          -3.59545190093836    1.16165990521601    1.46794678935608
H          -0.46938168238759    2.34054668810196   -1.64427485304060
O           0.25299697711105    1.75669870848503   -1.39421764782897
H          -0.01683540409088    1.42722866480568   -0.50888714881442
O          -0.06652603846788   -0.91085878608346   -1.98233448922859
H           0.19656663162940    0.02345958929210   -2.04133589172778
H          -0.96184133232751   -0.87932495816703   -1.58581770077868
O           2.90051479080164    1.70411768433773   -0.71682535914586
H           3.40014285042927    1.42649593411271   -1.48575042700322
H           1.99680613176604    1.89380834873115   -1.02599506138215
O           2.03960607227784    0.16238476302310    1.35822579751164
H           1.13880937055166    0.51725065192454    1.42980904931843
H           2.49413586280576    0.74481511168903    0.71846568957806
O          -1.30391606033108   -2.03357280519652    1.48253790934534
H          -1.32135398013881   -1.38594444040763    2.19160841002689
H          -1.77163070224890   -1.59039415946729    0.73989828432541
N           1.03314757421927   -1.95888509147382    0.18723527988358
H           1.57660844256373   -1.17239026081343    0.66238874502083
H           1.57803502116768   -2.80873807145035    0.09887282036278
H           0.16404134939344   -2.11574351065639    0.76563759624839
H           0.69403981136862   -1.60582966173196   -0.75598812130132
