    26
        -50.47071240  Gyration_radius:  2.41594423588 Dipole_moment: 4.178
 S           0.39313717366416   -0.54496723002711   -1.91352032831122
O           0.80563757932759   -1.68965624718244   -1.11793925560644
O           1.11681404191430    0.66874331692406   -1.62149323959788
O          -1.05639726522567   -0.34582645163772   -1.85554505968042
O           0.72899537099685   -0.91345179755623   -3.41615361370373
H           0.39488218777730   -1.80100569716130   -3.48842992991089
H          -1.27487110056888    1.23768923647249   -1.46286799946712
O          -1.12987964039288    2.16336654050344   -1.15756151163450
H          -0.28214927608935    2.38869670663054   -1.55702460480915
O           1.63539862181940   -1.22369418356329    1.41004885070611
H           0.77525454873818   -1.18138772398757    1.84876745947771
H           1.45241619759467   -1.48462101718237    0.48710510764137
O           2.10663421922988    1.29625371917939    0.77031630818396
H           2.17622021847799    0.37940434878199    1.12836638325183
H           1.95265902779630    1.15836206445215   -0.18629443065114
O          -1.57047334828455   -2.10092065024552    0.01411110334584
H          -1.70402521805771   -1.43227144127759   -0.68655940383694
H          -0.67900151253977   -2.42111510676359   -0.19579649774128
O          -1.09730237674434   -0.71898902061343    2.16224207709638
H          -1.65840390483461   -1.03644140728826    2.87050917157408
H          -1.34261416137969   -1.25613751462923    1.35221501369444
N          -0.36766856433469    1.78469601119889    1.34545780276679
H          -0.56192580223268    2.54645174847768    1.98547673955175
H           0.70542271468172    1.65999626103221    1.18780859782485
H          -0.73906725969839    0.88788077355190    1.71334370210713
H          -0.77969249162491    1.97894476191424    0.38341757774484
