    26
        -50.46896697  Gyration_radius:  2.40435197499 Dipole_moment: 6.650
 S          -1.64993056115004   -0.67102904002076   -0.12915297998069
O          -2.03668574090865   -1.33641826305700    1.08983313504553
O          -0.22481170089381   -0.87819962544854   -0.41237407439701
O          -1.93812491461166    0.76689986495005   -0.11908869044970
O          -2.44954878413333   -1.30834839707542   -1.30187662547341
H          -2.28189953998982   -0.69070726875925   -2.04705509944306
H          -0.76120967194930    1.55836904109776    0.53955170114140
O           0.00262279265413    2.04623165774982    0.96318523718364
H          -0.39281756148667    2.57145702893842    1.66082292271442
O           0.80200875979893    1.13550144319475   -1.75400696332161
H           0.70367998866364    1.90234659470073   -1.18318019310051
H           0.36421822565344    0.39810965515950   -1.26836600557092
O          -1.79664260554836    0.77939225091957   -2.77413580534824
H          -0.83936041174158    0.90998153740616   -2.85775363525325
H          -2.02291809820940    1.14756742534856   -1.90347199727619
O           0.10037747626020   -1.82853503459754    2.45713336176445
H          -0.76249962277683   -1.62715744676950    2.00405806948004
H           0.32772628664452   -2.71410535568235    2.16670645177471
O           2.44487069893624   -0.91946349179556   -0.77770363977526
H           1.57258538657020   -1.34471176918399   -0.80333129463653
H           2.35528824208594   -0.17869308335244   -1.39573959511164
N           1.71973331195005    0.06888252088088    1.58483920615654
H           2.13432314249635   -0.28847354108028    0.67643637719162
H           1.09457020438266    0.88412400671214    1.36530278945256
H           1.09541301584337   -0.70631387865755    1.96618473168263
H           2.43903168155439    0.32329316831280    2.25318257560021
