    26
        -50.46558922  Gyration_radius:  2.41123934101 Dipole_moment: 6.495
 S           0.32449278029439   -0.55688450521721    1.55300042548225
O          -0.50858787508000    0.19650652146387    2.48619195493995
O           1.45326953853856    0.24723254174304    1.08279175099855
O          -0.46734612998314   -1.04060050983326    0.42447744191563
O           0.87697601953588   -1.78890257589725    2.30489431401379
H           1.22227423350175   -2.37932908704494    1.57697478474677
H          -1.66111635815234   -0.43058196010252   -0.30256950665737
O          -2.39518863317226    0.04281627609321   -0.80543783895070
H          -3.08166349002791   -0.61441879893929   -0.92789702519571
O           0.62499809119810    2.28394434748795   -0.36652896027618
H           1.09767178853631    1.63104483400106    0.20065591082741
H           0.48623099792310    1.82143547226033   -1.21034856093522
O          -0.22435857470547    0.62357547150989   -2.42631790154795
H          -1.04105047182905    0.37720476952178   -1.95501549470027
H          -0.44260476836688    0.71116229329370   -3.35522333046438
O           1.94327673083538   -0.94246651674431   -1.23260316172546
H           1.89128024891680   -0.44112737004667   -0.39338384047797
H           1.18911611390347   -0.63109664031601   -1.74807525544462
O           1.86675545536248   -3.10146446376197    0.29758654581294
H           2.80328981991719   -3.24409847677393    0.45328348570805
H           1.81522010918709   -2.39648933159063   -0.39583847508003
N          -1.58741340841930    1.95562996252828    0.95395925540747
H          -1.20281497695377    1.26865071754606    1.69453714457410
H          -2.19390060274972    1.41202096459216    0.31858885776970
H          -2.07227410259904    2.73787729004652    1.37886267498032
H          -0.71653250564071    2.25835872420796    0.39343480427950
