    26
        -50.46976725  Gyration_radius:  2.44357242183 Dipole_moment: 2.974
 S          -1.32270323108688   -0.16927377305801   -1.29476994626275
O          -1.54184846980752   -1.06336879250936   -0.15585945325499
O          -0.88737603927673   -0.84514037217268   -2.48015772712194
O          -0.41979417872663    0.92041868866110   -0.89375506210027
O          -2.71017147134792    0.50182661281312   -1.61445863707383
H          -2.97751279472898    0.97196665853421   -0.81949125151564
H           1.21023727375119    0.24011353331485   -0.98428937680815
O           1.99828675044355   -0.27319375569211   -0.72473625915991
H           1.97298739198225   -1.06610564904556   -1.29976501592366
O           1.39735944013249    2.30689127358659    0.70006760596291
H           2.21153951985610    1.88715637974686    0.40991830239959
H           0.72964621343040    2.05241017997370    0.04639991100905
O          -2.13355818019592    1.21839926028295    1.11294307442775
H          -2.27877260498671    0.26260091283138    1.09553970338469
H          -1.44382922865754    1.36357977379453    0.43956221490008
O           0.12425194903085    1.08081467727563    2.72854695155034
H          -0.79255818007271    1.28023274071039    2.47109433177613
H           0.67148278061626    1.68544369088818    2.18330140612902
O           1.25869740790461   -2.37300199206175   -2.19538098204984
H           0.40138962369597   -1.91443194574131   -2.33064189360244
H           1.55602605576178   -2.63238536461025   -3.06929069588460
N           0.60698036386450   -1.11039318575089    1.35768162325003
H           1.34251564340966   -0.83648622797995    0.64371432373063
H           0.85434641869752   -1.96443083145556    1.84466667021594
H           0.45347737061244   -0.29055631395116    2.02995862040084
H          -0.28109981429855   -1.23308616824276    0.79920155169108
