    26
        -50.46752097  Gyration_radius:  2.39722287602 Dipole_moment: 3.057
 S           1.29677160216565   -1.13239350306438   -0.64332484042231
O           0.87621692844140   -0.92172816380289    0.73134945788289
O           2.02839304521328   -0.01135060490722   -1.17947325352085
O           0.17874868157827   -1.54044109940074   -1.49189104141708
O           2.28579318868841   -2.37221533762504   -0.64078405004074
H           1.72958252033848   -3.12623353159470   -0.81170836431592
H          -0.35338129026837   -0.01908262719441   -1.71605367004057
O          -0.63497378978432    0.91856586569889   -1.82934051245028
H          -0.13719669476367    1.22689433797937   -2.58993270327717
O          -1.47099980179265   -2.56279159536156    0.31433892437697
H          -0.94249264452299   -2.39175458730986    1.09882973662743
H          -0.91173119809693   -2.28264682099451   -0.43569973611462
O          -1.06052755756521    0.50968550427629    1.96336098659962
H          -0.35617121251538   -0.10825399456136    1.69033387078588
H          -1.84430326046514    0.25834590250259    1.41794612986838
O          -2.77801556531576   -0.19540523771276    0.06410638545135
H          -2.54558412258178   -1.14538601537867    0.10662780448895
H          -2.39790938688155    0.13576523166604   -0.75522461385984
O           2.43722773511303    1.52132021004680    0.87961724544824
H           2.45271262193626    0.98345476752530    0.05271902114259
H           2.31950571939415    0.87286143320639    1.57995711784891
N          -0.04042543896921    2.31743063097817    0.43162868261614
H          -0.54579576502373    1.70853739488671    1.17165359941640
H          -0.31040913677907    3.29325145189870    0.47283319495119
H           0.99603384033718    2.17453416969439    0.61077819861782
H          -0.27106903790863    1.88903621857777   -0.49264755065356
