    26
        -50.46995683  Gyration_radius:  2.40454559809 Dipole_moment: 4.971
 S          -0.11950830498972   -1.27045624745519   -0.76221470184422
O           0.06199266623023   -1.00262310492578   -2.18295884105491
O          -1.11394816758707   -0.37144524396143   -0.18736691309278
O           1.15376270649383   -1.13577114639212   -0.03938255804170
O          -0.60984706616362   -2.72127718897602   -0.61314893181697
H          -0.93187643348213   -2.79623158975969    0.33287241620621
H           1.81440363402784    0.29480976089412   -0.21586169103229
O           2.13317742818971    1.23306594539262   -0.33399813807650
H           3.09036446251056    1.18722275420036   -0.32524704293717
O          -1.87700672856490    2.14719815374727   -0.73730078039749
H          -1.51257337467436    2.42889577315239    0.11632045709905
H          -2.02810893933931    1.19277027935025   -0.61367262877788
O          -0.15121045673076    1.53648547765685    1.40122283485083
H           0.73640593279614    1.66840053523694    1.04879457964101
H          -0.52184578093830    0.77998596396071    0.89972073208144
O           0.51050560272665   -1.00840340906299    2.54205911709059
H           0.18374489703460   -0.09908399264077    2.59191118435749
H           0.89442731481130   -1.09281113270130    1.64525622651318
O          -1.24679000105585   -2.85391559127854    1.88319845541248
H          -0.92256391580559   -3.67410835498036    2.26172570584434
H          -0.67449923794539   -2.13329745070201    2.25543019041989
N           0.23135551419579    1.56606396390933   -2.21728712623579
H           0.35855388184487    2.02208521092410   -3.11432710073715
H           0.11435683723444    0.49944135158545   -2.32888223836937
H           1.06124864766758    1.67950131987608   -1.60073316516156
H          -0.63452109846983    1.92349797292827   -1.70613003193482
