    26
        -50.46372106  Gyration_radius:  2.71501052336 Dipole_moment: 3.431
 S           1.81737587456582   -1.53202642482049   -0.53858925881677
O           1.08405596008330   -2.36687513639039   -1.45277846376437
O           1.02288558845572   -1.17291404762860    0.64405692998385
O           2.38530104753360   -0.33979943467803   -1.14887344123155
O           3.04305866393954   -2.37734052564292   -0.00428506417184
H           3.56324800345807   -1.71469172825736    0.43922455203218
H           1.38736815540538    0.87276650554710   -1.36626875475673
O           0.70763453825937    1.59873942970980   -1.42557266760444
H           0.94052611014062    2.11442651073824   -2.19849248900271
O          -1.44959996577340   -2.18560841409398   -2.15514306766199
H          -0.52496225990784   -2.39961711731744   -1.89415635167603
H          -1.47468400014953   -2.25980082814817   -3.11015310087170
O          -0.96923167057931    1.97287683447841    2.77199731841044
H          -0.92711882308135    2.91835881647934    2.91976687412566
H          -0.12145035523262    1.72786109613963    2.32641569652635
O          -2.89061034057079    0.80782354212162    1.37544756329159
H          -2.23296926111610    1.30110561891391    1.92432584290241
H          -3.28529892034951    0.15920949334114    1.96040393033459
O           1.22267135324634    1.40057375765300    1.37794358989289
H           1.13048089774003    1.77459992911749    0.49195054416092
H           1.24728905185410    0.43384488725135    1.24042945770930
N          -1.15714850029760   -0.14004080067407   -0.43876930730308
H          -0.39530342150858   -0.61885176496434    0.10542762409741
H          -1.50807391469726   -0.82917837918072   -1.13432607836851
H          -1.91061018965706    0.19976671369699    0.20927502501124
H          -0.70483363173762    0.65479147659248   -0.91925689325615
