    26
        -50.46117976  Gyration_radius:  2.77683815791 Dipole_moment: 3.100
 S           0.40048684722061   -1.70706157906820   -0.71619706295058
O          -1.02306928834019   -1.60583088685626   -0.43065394858483
O           1.20100888748244   -1.59613521930457    0.48952730430929
O           0.78671051967604   -0.71595376541229   -1.73169332984497
O           0.68769497545728   -3.12312548880113   -1.31918720387318
H           0.38939381216022   -3.06769220805420   -2.24951375840783
H          -0.11006935230207    0.54312609237298   -1.27035461574631
O          -0.75703851972313    1.17174533760624   -0.85782780418245
H          -1.60612922584195    0.73476049268190   -0.97349670692325
O           0.42912453265897    3.48654792278769    0.14297841886620
H          -0.17732940206688    4.21406089748809   -0.00386830344147
H           0.07449316396551    2.72846994243416   -0.34871977820143
O           0.15725799771719   -2.23556236625286   -3.76881180829681
H           0.89617799845315   -2.30958117570867   -4.37677139049792
H           0.35534793637359   -1.47231286692962   -3.18580299557277
O          -2.04568308270985   -1.35644638093446    1.99422400135553
H          -1.77960259406011   -1.51356414571718    1.05823457317527
H          -1.99017699965114   -2.21029986185579    2.42514839190581
O           1.20451826074748    2.59238464982514    2.58786106084908
H           0.95982554674567    3.04236431938035    1.75336071549770
H           2.16192207604029    2.60786776699376    2.62988217063162
N          -0.03737464949988    0.37513349342214    1.66369588156187
H          -0.39277382838611    0.80770273778850    0.78499921824739
H           0.61489361117464   -0.39056877229402    1.33773152648984
H           0.43432906282726    1.10316263405186    2.23757325630028
H          -0.83393829609978   -0.10319158963645    2.12768220733649
