    26
        -50.46801012  Gyration_radius:  2.45895568331 Dipole_moment: 4.755
 S          -2.01627254771458   -0.29756571047764    0.35438414975096
O          -1.43884750665413   -1.60974874724061    0.49968540417711
O          -2.20670769894231    0.09795527181112   -1.03442089803013
O          -1.28103101075724    0.73731570009593    1.08322801047425
O          -3.45474305178837   -0.35968243366246    1.00925785642012
H          -3.80795150875082    0.50706573569398    0.83712579947076
H          -0.45869583049345    1.39624859466679   -0.11029302203661
O           0.04147569946846    1.67575102890835   -0.92145515434755
H          -0.62638351334074    1.63705377579586   -1.61334270883361
O          -0.84039020066999   -1.82381916901093   -2.18847488529080
H          -1.43595284064635   -1.09031256366395   -1.91159827706556
H          -1.01653045175970   -2.50853960936737   -1.53433403625589
O           2.32093919799209    2.21530763651640    0.54670320940092
H           1.55289622128875    2.24391873235969   -0.04231601948202
H           2.43291107166066    3.09915117544528    0.89969456610920
O           1.16254401725166   -1.76951199878698    1.09385482600528
H           0.19496487239056   -1.89362352983226    1.02331847068370
H           1.26835159501034   -1.02336951941486    1.73628412740522
O           1.10701093277162    0.51305774807810    2.40589134308311
H           1.65725346610858    1.09959461040160    1.85949595959333
H           0.19057889964049    0.66013085398038    2.11606465431374
N           1.36087100575339   -0.69390434887224   -1.24171483894482
H           2.25318134755547   -0.74073273925771   -1.72014962360305
H           0.59426630107216   -1.20829183275996   -1.76243297942278
H           1.40739317022225   -1.15451099829994   -0.25020581122750
H           1.03886834327138    0.29106232685108   -1.13425011235081
