    26
        -50.46507999  Gyration_radius:  2.44355447306 Dipole_moment: 6.374
 S           1.01427009328410   -0.99321602729715   -0.43625155107929
O           1.54707337137435   -1.47542410620569   -1.68843509015225
O          -0.17141628662834   -1.76478927353052   -0.02158444964795
O           0.65349610672287    0.43243557905304   -0.53071841104235
O           2.05224059082695   -1.15441659030806    0.68943123309850
H           2.40036112998005   -0.23166689727566    0.92254236461993
H          -0.80372132063254    1.02622224953604   -0.20989239778527
O          -1.74953793500065    1.29567111789345   -0.06362997175003
H          -1.74565568051688    2.24799675923258    0.04123356432267
O          -1.01475275024647   -0.37651369609172    2.11057252983497
H          -1.53999556024355    0.24113217921962    1.58430634618088
H          -0.64797032698956   -1.01054329011428    1.46645195712503
O           2.54354866029948    1.29416616219041    1.15296965910972
H           1.91153461129736    1.43068299472645    0.43087939827916
H           2.01602606822263    1.38810303374183    1.98070580798788
O          -0.04133490546487   -0.26394896158393   -3.32549615822840
H           0.63575894213926   -0.80358244394980   -2.83600428191799
H           0.24291024494818    0.64443938675313   -3.19827289721292
O           0.87064261744399    1.16480443565196    3.22707584914446
H           1.23196249911945    0.68790820033850    3.97558868683043
H           0.15723091797235    0.59147776745141    2.86163508210835
N          -1.95570066267769   -0.88120124962248   -1.64151608991526
H          -1.30108220337521   -1.38650122215303   -0.94732239609056
H          -2.26302255427065   -0.01942440485031   -1.16205750980215
H          -1.30977475386416   -0.61938266233327   -2.45091584916376
H          -2.73309090374372   -1.46442903047248   -1.93129538491395
