    26
        -50.47268905  Gyration_radius:  2.3942116306 Dipole_moment: 3.508
 S          -1.49107881430374   -0.18505824658849   -0.06557727406233
O          -0.87716128688150    0.91717377358301   -0.80111542325966
O          -2.03561373344759    0.20618146924647    1.21201707853396
O          -0.60966965129297   -1.33183825741576    0.00401274294409
O          -2.74432689802594   -0.62619384248270   -0.95115625583985
H          -3.45970587502864   -0.67370629811443   -0.32459017298611
H           0.83563477360805   -2.01109440640548   -0.95417461462216
O           1.47647740388313   -1.80069466594861   -1.65281810206365
H           0.90906620948163   -1.52971065412753   -2.39880286682994
O          -0.61686183706206   -0.65506591231138   -2.97783230356130
H          -0.77423467199975   -0.00377113030081   -2.27403990520438
H          -1.42175646070396   -1.17393237448891   -3.02745250781760
O           1.87488804770024    0.84791218257520    1.93404498572999
H           1.17602830413124    1.52915743606071    2.00287183350760
H           1.44737249530325    0.03721803863525    2.28799904451711
O          -0.40260342439612    2.28812335699867    1.65516502941354
H          -1.06176839544243    1.56977193185276    1.63287338774694
H          -0.50360455682091    2.73882415434888    0.81408693343072
O           0.17549002031330   -1.12728311023158    2.55236689756933
H          -0.60114889474312   -0.69134151142514    2.91358462484700
H          -0.07545805011492   -1.36934669046864    1.64301068169853
N           1.78220049367868    0.62036459545386   -0.65600922385566
H           2.38801131436664    1.26031362579088   -1.15826401297985
H           0.77696091298792    0.87292328545759   -0.78435260572105
H           1.87030560360568   -0.37087190503327   -1.03428150576019
H           1.96255696121561    0.66194514534105    0.40843355462468
