    26
        -50.47250311  Gyration_radius:  2.48722084774 Dipole_moment: 2.885
 S          -0.34028934928007    1.58505048719711    1.58613310730814
O          -1.32561144250985    2.09001699394215    0.63772179367585
O           0.86986073735117    1.13679887581276    0.92413467472380
O          -0.90648087044838    0.59823052070725    2.48568384441320
O           0.08241347896210    2.81514277015599    2.49054311468662
H          -0.71332650793332    2.95484902226596    2.99219452397988
H          -1.19189986910986   -0.79385931094999    1.76475334647871
O          -1.30426562013697   -1.67259001298297    1.31592905441292
H          -1.99276748834209   -2.13009327427722    1.80071469018284
O           1.69473052085230    1.04055461346200   -1.64443191354822
H           1.63478989120060    1.21431097279019   -0.68682150086959
H           1.82440751138422    0.07701064795457   -1.71462878116647
O          -1.14935967646095   -1.51162861598495   -1.40812333553384
H          -0.21065646921997   -1.72693831342866   -1.55506082281008
H          -1.29253489374187   -1.62625542627703   -0.44955560336809
O           1.59769505386528   -1.70751495947777   -1.45815530232086
H           1.62025503606708   -1.65749798925299   -0.45843478975689
H           2.23941478957430   -2.37155040539844   -1.71066350036730
O           1.46565566715803   -1.45939213817759    1.13143731402921
H           0.58563310478965   -1.80013455517114    1.34909422111076
H           1.37107584012279   -0.48727947988932    1.18787422888927
N          -0.93091312718486    1.09869014977612   -1.74073029211598
H           0.12273713258483    1.17867082836039   -1.87091897029462
H          -1.15274726697083    0.06178182513534   -1.67525671261209
H          -1.15249916147787    1.54568677869891   -0.80411010486118
H          -1.44531703111882    1.54793998501875   -2.48932229430302
