    26
        -50.46858679  Gyration_radius:  2.53263934963 Dipole_moment: 1.632
 S          -0.83478432436191   -1.77477369919035   -0.49896890819795
O          -1.46164344936369   -0.95776238963901    0.53994386027358
O           0.36579111616716   -2.42662123956906   -0.06282213560253
O          -0.63966063671782   -0.97822456482070   -1.71269813362398
O          -1.88656550393961   -2.89339958852254   -0.87155711983091
H          -2.67602222718039   -2.39059039503774   -1.04523591269120
H          -0.42238056862449    0.66255833874935   -1.54936363887201
O          -0.11309027009814    1.57385770362255   -1.33834829665189
H           0.56603273607250    1.76687769275985   -1.98861519207544
O          -2.18262188929913    1.69717978989656    0.68355558160588
H          -1.71705698860300    1.99141736898014   -0.10774092270618
H          -2.12313347413992    0.72679646401584    0.67165705597899
O          -0.54559700179306    2.27954605769932    2.75006551526686
H          -1.24147970764339    2.20904282365475    2.05744532417415
H          -0.99022038678892    2.16996205218848    3.59091953321399
O           2.63939367482324   -1.06952196153619    0.47957097628205
H           2.69693218650142   -0.81386130433343   -0.46051445923333
H           2.01021653311074   -1.81178955726518    0.46773651948819
O           1.98292334461725   -0.62116892252661   -2.13278121090676
H           2.32992101690817   -1.31608726349003   -2.69411172400976
H           1.03306377372165   -0.82774026397929   -2.01113934388837
N           0.66570286232142    0.56811942966065    1.06888054542832
H           0.55447062142549    1.14014341262585    0.20559133076312
H           0.53505951318087    1.18444194623987    1.89218546519380
H          -0.12127251696145   -0.11865513690479    1.04269461610821
H           1.57602156668626    0.03025319674699    1.02365070452723
