    26
        -50.47201741  Gyration_radius:  2.51786924991 Dipole_moment: 1.413
 S          -1.66077363907417   -0.55007690884555   -0.97004606558935
O          -1.29273711835613    0.71626216272733   -1.56719639923846
O          -1.28094107137874   -0.60988783071718    0.44172241931591
O          -1.19358140844742   -1.71124632296673   -1.69610713859790
O          -3.24162651991369   -0.60721640041634   -1.00572963955362
H          -3.40981153406327   -1.52277546844530   -0.81005534009415
H           0.40705846736780   -1.86182492818589   -1.51718345760474
O           1.38642462919266   -1.86466050381395   -1.37422564458419
H           1.74588009421722   -2.49074207849753   -2.00504386448587
O           1.40761657723838    0.86963822820321   -1.50547058245100
H           1.63542033609212   -0.07653190733882   -1.51074297440764
H           0.47902141821877    0.90911036294610   -1.79572890725541
O          -1.45956666360493    2.92202169189911   -0.03318986226903
H          -1.49363953156353    2.14145037918118   -0.62211679743899
H          -1.82350860917613    3.65038666109371   -0.53751733583300
O           1.88992893054443    0.05705447397638    2.83274396890746
H           1.65981419683534   -0.11041402600692    3.74720486441234
H           1.64716667062475   -0.76279649235633    2.33554295350609
O           0.91514259334156   -1.94097486787044    1.36798231383812
H           0.02569978549165   -1.60694041397291    1.16010933886180
H           1.33923397091337   -2.03993656706640    0.50236579660994
N           0.47781143524456    1.32074183171950    0.93777807846658
H           0.00695641960210    2.23009854447145    0.96912753108869
H           1.04072232369454    1.25602877951020    0.04642675907399
H           1.06399258882932    1.09148179233373    1.76728507857592
H          -0.27170434182822    0.59174983846450    0.84206490676051
