    26
        -50.47003576  Gyration_radius:  2.39720659084 Dipole_moment: 7.082
 S          -0.86227085315861   -0.97669026400015   -0.74393616978772
O          -0.51394488632600   -0.77651534181620   -2.14193604022207
O          -1.26898401572885    0.29244248628087   -0.13197054527888
O           0.25927843147435   -1.53773010312833    0.01589250944377
O          -2.04106150648003   -1.96189724057051   -0.67950639282438
H          -2.01906810581568   -2.30088592599158    0.26525922431776
H           1.70436285966475   -0.89574080895676   -0.20359737046256
O           2.55402900069857   -0.39996301232217   -0.35623096496936
H           3.22906712139457   -1.06907440956186   -0.47801156943998
O          -0.14694801284321    2.73970825506197   -0.57749043319840
H           0.30527063683922    2.60903786805179    0.27561098068301
H          -0.88657038757234    2.10958532570000   -0.53420296973244
O           0.82926461999680    1.15669151540046    1.41575910599968
H           1.65379871347558    0.71365514265981    1.19390116943231
H           0.13290222769824    0.66606362259767    0.94521947134549
O          -1.92515746935760    0.02702694128892    2.46017569553910
H          -1.88234049858419    0.22135452655152    1.50500359371794
H          -1.19225127361557    0.50790901270375    2.85456815578389
O          -1.53165281884617   -2.54242130863723    1.76170745285415
H          -1.79161006938943   -1.71961464744854    2.22835317744699
H          -0.61735222856421   -2.40384943237553    1.47255229611069
N           1.22601587219221    1.12761738333150   -2.13328882107888
H           1.95795735653690    0.68574396235735   -1.53798488694970
H           0.48505660689087    0.36283132508492   -2.27525287300137
H           0.74330087792414    1.90826043266482   -1.58337726713425
H           1.59890780141416    1.45645468515487   -3.01721652853405
