    26
        -50.47468849  Gyration_radius:  2.4176400922 Dipole_moment: 2.067
 S          -1.56808943325199   -0.49270453854404    0.51804958368739
O          -2.41294337124150    0.62076557079241    0.19246394662413
O          -0.55951940103594   -0.15076289093342    1.52481160624648
O          -0.91680284815388   -1.06691245726123   -0.66913833477744
O          -2.45012588431095   -1.62926483978840    1.13074694745542
H          -1.82480734125613   -2.36761861084593    1.21698940230067
H          -0.17241200899841   -0.03384648647474   -1.66633357740070
O           0.29722248461974    0.61655183344736   -2.24516832449883
H           0.21095930647244    0.28695490498528   -3.14088189956048
O          -1.07084589047179    2.63461416621488   -0.93194695634702
H          -1.74143032537552    2.02307854248299   -0.56238042275801
H          -0.63097231113197    2.12532582006488   -1.63276735225723
O           2.45003412837760    0.81920842126745   -0.52085341488858
H           1.85938757903207    0.72708237044923   -1.28803630821085
H           2.40333569313727   -0.03431884225346   -0.04501375469864
O           1.77396618517447   -1.33823592342525    0.96460957310481
H           1.57168268184386   -2.27011447859778    0.84872781664039
H           0.93672427897627   -0.93543013904293    1.26630013499249
O          -0.40360397615289   -3.29862687611026    0.52932835355638
H          -0.46131576333276   -2.52125897442264   -0.07205250122829
H          -0.66706962961375   -4.06496911814258    0.01617451409926
N           0.68835606564129    2.09920202635168    0.93756927066078
H           1.52868015519743    1.70414727866240    0.40403925249490
H           0.18253385270841    1.26835780469750    1.33735055617703
H           0.96032876811562    2.75553811493783    1.65998682217285
H           0.01672701503304    2.52323731148628    0.22742506641193
