    26
        -50.46725638  Gyration_radius:  2.60266984187 Dipole_moment: 3.993
 S          -1.43615599894068    0.74681661315824    0.23075365343309
O          -0.98723717177832    1.13617066544955    1.56142445972492
O          -1.22441559251566   -0.66501234260797   -0.01751416027413
O          -0.78234817809262    1.57752141205273   -0.79088863952293
O          -2.96842533938916    1.00848448296705    0.12957943168276
H          -3.04041414106473    1.98307414397721    0.07361208003445
H           0.79624439514807    1.28448405201843   -0.75457723441975
O           1.75760880323543    1.04576999897384   -0.68803700228768
H           2.24349646459339    1.80347323407513   -1.01766592957486
O          -2.49489744368486    3.53938275174152   -0.47607880804975
H          -2.86044709272420    3.80145244240138   -1.32416957260244
H          -1.69055458580026    3.01582493110786   -0.66904867773749
O           1.60081069865642   -3.33331784633462   -0.70354559420623
H           1.26384128922065   -4.13003786103102   -1.11505357334170
H           1.28308433546206   -2.58137939700664   -1.26251500865813
O           0.29268631375613   -2.39374718407166    1.41839694929495
H          -0.45509202536828   -1.97378861644501    0.95455886708868
H           0.81199961291356   -2.85323871067025    0.71648788592918
O           0.57446223352047   -1.22692046182971   -1.94464853966599
H          -0.19536098258015   -1.05116593200972   -1.36984198534686
H           1.17730044809614   -0.49074376238562   -1.78274299139361
N           1.30347925824044   -0.04407078758669    1.78483774632268
H           1.00969153489879   -1.08766315276256    1.70584844462910
H           0.37811387564924    0.48900159754470    1.83724020077753
H           1.88701657401752    0.13233117408907    2.59490251407255
H           1.75551271452253    0.26729856517982    0.90868548407260
