    26
        -50.46944561  Gyration_radius:  2.48555534625 Dipole_moment: 3.837
 S           0.85653455991436   -1.51339585896416    0.94903072864001
O           0.22131165912229   -0.71064317778329    1.97055956396573
O           2.28929801340505   -1.39781384752459    0.86143636531537
O           0.20080586064749   -1.31758702115143   -0.35112039502437
O           0.57202127020549   -3.03134668260133    1.34029135746499
H           1.42285580038925   -3.43490281510030    1.20404101000259
H           0.78162243466964   -0.52021113418521   -1.66538860230854
O           1.08404661690710    0.06720428799576   -2.39825306750883
H           1.44346774142458   -0.50920763266893   -3.07403257734503
O          -1.09094299680034    1.69944182009102   -2.61978762906405
H          -0.76485040883391    2.60005515471304   -2.66107691544317
H          -0.30354226019499    1.12123436897039   -2.67411761666406
O           2.11757413432269    1.15505748229916    0.02215328320985
H           1.95110889016105    1.00322228176837   -0.91674388988280
H           2.33420712953398    0.28305616658556    0.39621118889559
O          -2.42530515237002   -1.06781135570998    1.71015911901469
H          -2.68560108234878   -1.89743242089883    2.11081160436396
H          -1.47111076136823   -0.96749067296810    1.89701264445215
O           0.04574742572687    1.96983105975601    1.50905984171021
H           0.87433641020015    1.91857192829633    0.98650240561646
H           0.09926979240092    1.19282968832011    2.08667450629355
N          -1.54163891041933    0.68639547759350   -0.15001865105169
H          -1.66103440852282    1.12835130972452   -1.08152232323795
H          -0.93030528104932   -0.16008769756175   -0.25616234979178
H          -1.01353150590526    1.33426676035567    0.51474759361653
H          -2.40634498106627    0.36841255067847    0.28953277469503
