    26
        -50.46261706  Gyration_radius:  2.58224001963 Dipole_moment: 3.317
 S          -0.54015947032437   -1.98423553383426    0.90499827393557
O          -1.52139642687641   -1.17265295345593    0.18998769648409
O          -0.07224912151000   -1.33317804555487    2.10429890779930
O           0.52447778580929   -2.42426249769697    0.01394659432642
O          -1.30144211794676   -3.29790677136865    1.37055361255431
H          -1.62299118393698   -3.68751617566024    0.56243553120385
H           0.59184925160693   -1.34079662431526   -1.18413056702757
O           0.75383332258583   -0.65811458507791   -1.88290257106009
H           1.08520762572809   -1.13490745779756   -2.64557942509502
O          -2.10282614153130    2.89686143175198   -0.45166144683822
H          -2.98282398489763    2.59517235057793   -0.68270089094202
H          -1.52106387302788    2.64051059253593   -1.20189748408350
O          -0.31944011709153    1.89661692677159   -2.18881911840097
H           0.52326569762213    2.28732230713732   -1.94356808644957
H          -0.18885816022809    0.93599319570827   -2.13090891619493
O           2.48864254849537   -1.02873690700685    1.48825234803568
H           1.62485894705355   -1.12427086173561    1.93553118319849
H           2.48687950659619   -1.74803350525867    0.84847204757480
O           1.75490593112344    1.04995914218920    0.00383748127747
H           1.56039446832133    0.50881478324843   -0.78102941455439
H           2.19448365046832    0.42039204263382    0.62300788761015
N          -0.68944634072341    1.16158040810463    1.02592781765561
H          -1.09672061783587    0.24594786581757    0.67810108885573
H          -1.26504333613468    1.94957190253685    0.64756515773693
H          -0.67288013748973    1.12648253033286    2.04086014429162
H           0.30854228414490    1.21938645941799    0.65542213810819
