    26
        -50.47008309  Gyration_radius:  2.5097677005 Dipole_moment: 5.852
 S          -0.73881932159127   -0.90027589052253    0.34869739823903
O          -1.75752796644999   -0.24331627898535   -0.43355804704389
O          -0.26400352222523    0.00136127733783    1.42165188671623
O           0.39985719092358   -1.33022559268835   -0.46412794302950
O          -1.34892449506477   -2.14347340074601    1.02804503151018
H          -0.55542026288023   -2.72038904370678    1.23439328861761
H           1.15085132654203   -0.16387220921801   -1.23869192274758
O           1.57671846168405    0.63297371061363   -1.65859132428037
H           2.49441440266215    0.39764071419845   -1.80346748208217
O          -1.01388856576427    0.69743455158527   -2.89307351064690
H          -1.32069872225986    0.11831495432286   -2.17365902218390
H          -0.05179290841592    0.69179540904183   -2.83312075095338
O          -2.10650280198908    2.39668717404683   -1.15075622381763
H          -2.48936646073875    1.61990440238235   -0.71626428585440
H          -1.82728735190631    2.03746258870988   -2.02170965407506
O           1.52744131933357   -1.18991371233007    2.95698323731711
H           1.16154230189197   -1.21615722691095    3.84274637000595
H           0.88861401514934   -0.67832854695761    2.41312679108221
O           0.94537607143076   -3.25188179830287    1.32713875361825
H           1.12402490757790   -2.80394508929179    0.48621674193170
H           1.33563231428766   -2.67166637824665    2.01392655700291
N           0.19112577004460    2.17467479211647    0.07153846443310
H           0.85595116347064    1.80766811465746   -0.63959386024303
H          -0.74565482672989    2.40006102964317   -0.41486763115657
H          -0.00093829573525    1.36081373124128    0.73279839647960
H           0.56927625677330    2.97665272801208    0.56421875120761
