    26
        -50.47250310  Gyration_radius:  2.48716660683 Dipole_moment: 2.881
 S           1.92526810863421   -1.14375895037866    0.35792696671743
O           2.00552657490076   -1.14160143457291   -1.09770170160000
O           0.57215812583009   -1.37497134137014    0.82615824274130
O           2.54525082419193    0.03162306343295    0.93906444488411
O           2.77998132173252   -2.38268669628809    0.85230120462053
H           3.66115268748808   -2.09105569990333    0.64524565976823
H           1.68212494935721    1.35193772409311    0.71247478356087
O           1.10207027407105    2.15237186203638    0.61741285036750
H           1.68850800796123    2.90918562252063    0.65854050771214
O          -2.61666055917904    0.63919963961289    0.58078014387379
H          -3.41940764505465    0.89191739105005    1.03705417873630
H          -1.89043739527066    0.62867548741061    1.26993999440136
O          -0.58027259883488    0.60220044974336    2.20458596998573
H          -0.03130498171453    1.33952088386705    1.89980825740117
H          -0.12745406475248   -0.19533130014073    1.86390207430871
O          -0.89561113870003    1.81775838799888   -1.21803092355187
H          -1.63179288255162    1.53833828962035   -0.64436912447048
H          -0.16202346915898    2.02949751284606   -0.61025013296186
O          -1.79982818431804   -1.80846586588207   -0.38748114708217
H          -2.28024096377173   -1.03639927479563   -0.03639191707861
H          -1.01029957434912   -1.88860254654692    0.17913330657959
N          -0.30539299402172   -0.57610303837246   -2.16340136048685
H           0.66424500643491   -0.81563842966995   -1.80490905676649
H          -0.50857947260031    0.43807070131314   -1.92110510331452
H          -0.37794264188207   -0.74770865394440   -3.15945145954866
H          -0.98903732443982   -1.16797376366455   -1.60123665876016
