    26
        -50.47250314  Gyration_radius:  2.48719832489 Dipole_moment: 2.883
 S          -1.25918566873317   -1.84868596064153   -0.37439424314381
O          -2.06161824433217   -1.32578776785614    0.72471203021005
O           0.16196348465590   -1.69129889139374   -0.13128516482602
O          -1.68744687221697   -1.32597947246773   -1.65776781507629
O          -1.52774354962695   -3.40921644837308   -0.42236895121851
H          -2.42820942115494   -3.43040351172235   -0.72770101423085
H          -1.29074108918747    0.20400908416795   -1.85912189129191
O          -0.98065112743757    1.13785137033356   -1.99362620765267
H          -1.58224348140255    1.52599846158995   -2.63064684041773
O          -0.16051562036723    2.33677346263403    0.32165919513143
H          -0.51045831132293    1.99624407919935   -0.52332818159959
H           0.79930305418520    2.17344471200496    0.28652900160312
O           2.40192629723865    1.34060485360381    0.15729813565549
H           3.26938714340028    1.69402483999299   -0.04029823134053
H           2.13638564408105    0.78459563768785   -0.63192680765751
O           1.63194694118335   -0.66341830976654    1.88621541455987
H           2.08681948601079    0.03832760547214    1.38551405732651
H           1.26218726408192   -1.25513023405603    1.20504936891769
O           1.50328787387411   -0.10690341603291   -1.81285255591416
H           1.08096148123985   -0.82299326017287   -1.29708568914160
H           0.76152440201263    0.41184518478537   -2.15721708778462
N          -0.73606226236313    0.45880706215726    2.08628575059540
H          -1.14817141549001    0.72226474580374    2.97375136978026
H          -0.61151200116716    1.29604802617328    1.44422215051828
H           0.22553131014197    0.01708311793234    2.20349042363908
H          -1.33666533743332   -0.25810496091020    1.58489378328637
