    26
        -50.46285343  Gyration_radius:  2.47830813256 Dipole_moment: 2.892
 S           0.25720924257021   -0.94687745225653   -1.75628388037912
O          -1.09131514547317   -1.33875504546184   -1.40405104388144
O           1.24827941836990   -1.60356688394756   -0.90390353633172
O           0.45059180957761    0.48743610549803   -1.79966132475303
O           0.51034837687435   -1.46887531345328   -3.22853479681509
H           1.23480321534472   -0.91867721220494   -3.50699630953807
H           0.95860629026898    1.24492503298533   -0.42487224116867
O           1.22712335898671    1.50689612355065    0.48689223776702
H           2.05265729821608    1.00989291054866    0.64191850639269
O          -2.46035903036845    0.62907105755816   -0.38773524747987
H          -1.93742647569902   -0.05637386036621   -0.87043729073399
H          -3.38022655134318    0.46325966041506   -0.59854945341918
O          -1.25591462443764    2.99065392623485    0.78928126263547
H          -1.68746851069455    2.50945041605445    0.07518812256329
H          -0.31625350938463    2.98250929107114    0.58291985715389
O           3.11122065019448   -0.41688718530317    0.58161425790142
H           2.51780177033770   -0.88655646938889   -0.04023502005600
H           3.35446549382507   -1.05816682928340    1.25089383318769
O          -0.30790878282507   -2.22275888103372    1.10559745593917
H           0.37839122054942   -2.08652184809812    0.41186344588833
H          -1.08086211509464   -2.48384941899911    0.59518172101044
N          -0.76504628327750    0.32640638862160    1.71153196389200
H           0.08227255450468    0.85831331400841    1.31387228036294
H          -0.58113310264057   -0.71096080170024    1.62846447231332
H          -0.95910703160666    0.62391984601299    2.66147357406100
H          -1.56074953675950    0.56609313893399    1.08456714349036
