    26
        -50.46977239  Gyration_radius:  2.47773456647 Dipole_moment: 4.725
 S           0.26859153316930   -0.36861136997160    1.47220652653626
O          -0.19652066218692    1.00238437904007    1.45999644987805
O           1.16429796326562   -0.62749929316972    0.34349605754335
O          -0.82491149555662   -1.33310846190310    1.50160921985844
O           1.10461217352978   -0.55124074980868    2.77759188813469
H           1.22600923749753   -1.52058922649224    2.81106933417646
H          -1.04140682017227   -1.07215594211403   -1.61323284530000
O          -0.11707070244133   -1.02001294685794   -1.95586927183278
H           0.43717688870153   -1.07891085677586   -1.14821405439708
O          -2.36237371086439   -0.69393466864804   -0.59464552601370
H          -2.44860428342645    0.26337789922034   -0.51201479919146
H          -1.93913084377451   -0.99586840501160    0.23298405159951
O           0.74844733534201   -3.15422630321033    2.50142273793251
H           0.04121714765109   -2.69659217782344    1.99972971158378
H           0.31131122711879   -3.63086146355825    3.21075665551506
O           2.35843995090171    1.45077131608586   -0.67302761769594
H           1.93208656363760    0.71660172583177   -0.16188563317277
H           3.20965700654015    1.10739003136132   -0.95076410135418
O          -1.67666894881138    2.09610504420818   -0.32361339916684
H          -1.97606689895302    2.92983310355315    0.04238701696324
H          -1.11999101130580    1.67801000276309    0.39272764905983
N           0.17893939308625    1.52921513636373   -2.19329491557383
H           0.16831989623400    1.96322247705302   -3.10868572330841
H           0.03703281911612    0.44524916182538   -2.23755882321012
H           1.09576521045776    1.66368230784995   -1.69569548527636
H          -0.57915893875778    1.89776929018141   -1.57747509329656
