    26
        -50.46765530  Gyration_radius:  2.55048472277 Dipole_moment: 1.857
 S          -1.87366467847606   -0.38708414290854   -0.97476957655949
O          -1.39407519269450    0.91896785776439   -1.40830342491625
O          -1.40950367115714   -0.68660978938330    0.38158542594148
O          -1.62849672636382   -1.44324660188937   -1.91477075351099
O          -3.45342931982204   -0.25638139310578   -0.83841543649285
H          -3.76510747569786   -0.52770560302631   -1.69609366748605
H          -0.00950068486532   -2.75546756823143   -1.20758595376999
O           0.43100612814934   -2.41278191292696   -0.42272721051220
H          -0.26657221488751   -1.88826947124307    0.01844912764543
O           1.17636874674634    0.08315981101142   -1.44964666195538
H           1.04838242510523   -0.86300303634886   -1.27449230108597
H           0.28584759938357    0.44781031335202   -1.58016655984552
O          -1.06174877907527    3.09290050758682    0.02469371022092
H          -0.43686729359981    3.61787257408106   -0.47954860057257
H          -1.30878458949408    2.34098622907414   -0.56324526429870
O           2.26950620156693    0.72810536695452    0.89005304035766
H           2.01748431589164    0.62256793581407   -0.05707314035706
H           2.48318683153566   -0.18118095774430    1.18279022839014
O           2.52707262721612   -1.93423842686778    1.31573253373099
H           1.78185283103410   -2.21945377265372    0.76151402249900
H           3.30487708933440   -2.37141981955516    0.96552833578844
N          -0.14651220136886    1.22312268227580    1.69670147022135
H          -0.69279319546886    0.43383082289144    1.26234671201500
H          -0.46690817137177    2.09474378085153    1.20918872416684
H          -0.31014099267708    1.26823946541767    2.69584329151343
H           0.89852040105325    1.05453515881335    1.46241192886350
