    26
        -50.47008307  Gyration_radius:  2.50859387094 Dipole_moment: 5.871
 S          -1.04647383930944   -0.60828548919358    0.12388406868783
O          -0.46032149716719   -0.06607363094272    1.36967687043572
O          -0.31452272089827   -1.77764402503885   -0.29828663769614
O          -1.06639294699941    0.43792694378836   -0.89943063892043
O          -2.50212066566500   -1.01110225018667    0.43708389076719
H          -3.01306539074545   -0.15189790424729    0.36155929760190
H           0.36248449391903    0.98185264288546   -1.33308141232309
O           1.29452742971060    1.28105655489430   -1.51816960658758
H           1.22725555998709    2.19067187421921   -1.81252667743065
O          -1.83110249144974    2.01933512403456    2.23962943133793
H          -1.26184814439311    1.26875473339369    1.96001105306561
H          -2.16807124865866    1.78907717904929    3.10715872159163
O          -3.36073936104251    1.38529981711480    0.11688703381024
H          -2.97212956389281    1.81936109263637    0.90500414677679
H          -2.66063177333764    1.40550372548700   -0.55336958155873
O           2.35402692053310   -2.44206926163984   -0.11154310358339
H           2.31275795042801   -2.25353387169302   -1.07483316060378
H           1.44094425987416   -2.69389486274587    0.09266607388158
O           1.40656591383217   -1.45067391416533   -2.40074993451206
H           1.50083408029831   -0.49256596622165   -2.44705364010723
H           0.60497662089763   -1.60655571322885   -1.87142757648645
N           2.05922174638855    0.01047185017999    0.73754939691279
H           2.71503935646862    0.38111319181043    1.41683601108064
H           2.00934376647398    0.60253695617247   -0.11666296695994
H           2.30319213131781   -0.99939981264707    0.44498402523942
H           1.06624941338603   -0.01926499376074    1.12420490558104
