    26
        -50.46804504  Gyration_radius:  2.44152422765 Dipole_moment: 2.581
 S          -0.90571137157657   -1.66612952866765    0.40968996507931
O          -1.28869421301168   -1.50363344602742    1.80301921745936
O           0.51867285643171   -1.53578533545508    0.18415063718194
O          -1.68565082181508   -0.79632081706384   -0.45906203197371
O          -1.27588379751201   -3.15319585115785    0.01869244937406
H          -2.15118906693397   -3.22801424950661    0.38261216346226
H          -0.84153293181673    0.16584131682951   -1.60589338325212
O          -0.32663328678899    0.78851481106284   -2.15365246831998
H           0.27819372665637    0.22744319392353   -2.65403889387497
O           1.96024879771522    1.61632315292360   -0.95942563850092
H           1.06294212999478    1.50516481934632   -1.33540516743857
H           2.48201882220945    0.95175963334150   -1.42241223952168
O          -1.97264130087432    1.80859773495749    0.12606731256445
H          -2.10438758368378    0.86719257755037   -0.10292906615736
H          -1.51273100703936    2.18028509431148   -0.63337646173135
O           1.80777469983756    0.48615788886037    1.42331545029381
H           1.53585536974411   -0.38346739963616    1.07686236773900
H           1.96866243604401    1.02769875653629    0.61009372165350
O           1.80245866530573   -1.04137183266692   -2.12871343643952
H           2.22264942763195   -1.85649667369323   -2.40444263704688
H           1.34403189979557   -1.24624633212842   -1.28874398196044
N          -0.59112114605228    0.98236649142433    2.24745626867064
H          -1.10972445627475    1.50221879627002    1.49481067159016
H          -0.94113439093131   -0.01390240341265    2.22038542487583
H           0.45883897356187    0.91317471271869    1.99158945836575
H          -0.73531247061094    1.40182487935366    3.15935027789235
