    26
        -50.45993500  Gyration_radius:  2.82318777263 Dipole_moment: 3.737
 S          -2.53602214043838   -1.46206882677146   -0.28854964381261
O          -2.73233512850365   -0.13607493706036   -0.82918175087544
O          -2.10461329771662   -1.44492237617674    1.10922404878745
O          -1.65785168367049   -2.29382275837421   -1.09866196083259
O          -3.95654696130814   -2.16833533162231   -0.29737211129561
H          -3.75350357669459   -3.02378279993561    0.06813069620236
H          -0.18787709731610   -1.77242133238607   -1.32324505508420
O           0.76061490267145   -1.45904328390300   -1.31661794853504
H           1.28979889139192   -2.23090337925032   -1.52253973772490
O           1.26734513411603    1.25102657042585   -1.73116868646814
H           0.40310039043124    1.61297019647202   -1.48187666265004
H           1.13300818418609    0.29487457414750   -1.81437079993615
O          -1.12385314107427    1.84719259135595   -0.46184731359742
H          -1.65412436597149    2.63517255665885   -0.33794478761578
H          -1.76590631403323    1.11735508311278   -0.67246832751003
O           2.19848412054506    0.55559448399928    2.55091034383852
H           2.57931476595621    0.99375252274854    1.75660295518966
H           2.18668993485344    1.21731496087314    3.24341897532597
O           2.94664840907400    1.75622082729696    0.28212338333013
H           2.32492172588544    1.61411676870071   -0.47247229063025
H           3.82647403472780    1.70065733715727   -0.09172209103070
N           0.12189609209134   -0.11804708661898    0.96968361771578
H           0.79705897418147    0.02455838734961    1.74919970236036
H           0.58531275569689   -0.62813735820070    0.19404486884827
H          -0.74545566473910   -0.67595921124105    1.21595716011863
H          -0.20257893433980    0.79271182123572    0.60074342589226
