    26
        -50.47679058  Gyration_radius:  2.36800267554 Dipole_moment: 3.210
 S          -0.78027487077752    0.77220449611960    1.09273010804137
O          -0.64923119256479    2.19485441412996    0.85675597805706
O           0.47325366191415    0.18459053215291    1.56685282315010
O          -1.22884621434913    0.06983864866049   -0.12062683672400
O          -1.85469592750250    0.55817256918813    2.18310544459159
H          -2.08660192500740   -0.40328501214038    2.09232141363776
H          -0.03846291680165   -0.94211195394124   -0.79555648089300
O           0.69606747409360   -1.46546194425261   -1.17694723910903
H           0.82336503217520   -2.18674685823619   -0.55012462854081
O          -2.17310295067002   -1.91152209660708    1.45938780564375
H          -1.29563226663463   -2.32997750661057    1.55747104402293
H          -2.16716418951239   -1.52207156505114    0.57439672228531
O          -0.74810537417691    0.79003409292528   -2.66349720321436
H          -1.16840907983182    0.57338034435159   -1.80752831147768
H          -0.29288613419090   -0.01596153885899   -2.92664876346244
O           0.49777763973984   -2.42341882786612    1.51547639820901
H           0.55436007184535   -1.43722110160166    1.57490573519849
H           0.97233658903891   -2.76426524672581    2.27484980326713
O           2.35859409921484    0.45790378193858   -0.30416591557154
H           1.87470631016809    0.42756079856172    0.54557083022344
H           1.99875393859219   -0.31517704034616   -0.78990990920839
N           0.86165764875419    2.37045965623946   -1.25422547229176
H           0.23486086005553    2.46476866164363   -0.40065353954903
H           1.22547469139902    3.26725819611670   -1.55613438893795
H           1.63083187134483    1.68693350904979   -0.95299047834154
H           0.28137315373406    1.89926097112124   -1.99481494899862
