    26
        -50.47064883  Gyration_radius:  2.41827865907 Dipole_moment: 5.146
 S          -1.40796429127386   -1.27063630182608    0.64821448354842
O          -1.61806249321030   -1.21702586821500   -0.78356843345568
O          -1.80009022282405   -0.07399619902666    1.35519377591547
O          -0.03487421142699   -1.66860134499905    0.97784579726122
O          -2.33936972634590   -2.44008255975170    1.17005182850899
H          -2.40013674162534   -2.99321322628770    0.39894884169567
H           1.27876870119406   -1.46799824577186    0.07197119465702
O           2.11430503296022   -1.25314502465506   -0.41874233472333
H           2.72590412939020   -1.96436389285660   -0.22330666594547
O           0.33335060627598   -0.32978008236011   -2.41069907619380
H           1.10537187149338   -0.74005369287087   -2.00189014684803
H          -0.43405694391635   -0.69073814245723   -1.92561334683029
O          -2.27171938269078    1.54882206999678   -0.68452437492851
H          -2.46692707891940    0.86867277319211   -1.33611702053952
H          -2.18402173581857    1.05706731084852    0.15474363563636
O           0.52554735718710    0.37384126471686    2.55453956902053
H           0.44422387279921   -0.51607904853894    2.15306488971202
H          -0.39370364032999    0.67416497289358    2.55427654524906
O           0.22227980619036    2.12114260046023   -1.39537149112041
H           0.29667517653385    1.32425474775123   -1.97266443782676
H          -0.71993551837502    2.10783566433970   -1.10277701022410
N           1.82509412702962    1.32572247004379    0.45353512933223
H           2.59226960079708    1.96477583966322    0.62898344797387
H           2.16751843263413    0.42631368496947    0.06849552253388
H           1.31087668696272    1.08871663610332    1.35134501673119
H           1.12867657531698    1.74438358463764   -0.28593534913774
