    26
        -50.47064877  Gyration_radius:  2.41830117724 Dipole_moment: 5.153
 S          -1.35443915240891   -0.59464154022533   -1.35254462466388
O          -1.60936919176260    0.82672399314922   -1.34462883325415
O          -1.74759596997691   -1.28103003761638   -0.13965218837980
O           0.03548252966918   -0.89303003011314   -1.71540936859102
O          -2.24954691789113   -1.21673407453979   -2.50114620986205
H          -2.42643005833756   -2.08444623496721   -2.15476876434768
H           1.22665327300008   -1.32824191841002   -0.72603637404345
O           1.99791116205528   -1.48672712636095   -0.12190804193767
H           2.60501301973602   -2.04545884025622   -0.60904181585876
O          -2.28827151927292    1.17228428686891    1.19256961637648
H          -2.10839407775997    1.18900956164153    0.23280698968199
H          -2.59004729120979    0.27435098324243    1.35959466311784
O           0.86712884393593    1.60630139278616   -1.89946425341727
H          -0.03315834155019    1.95115653749025   -1.82376731388602
H           0.70317060472175    0.65118964438000   -2.04394809368692
O           0.11035989395475    1.03750018130261    2.32496480788018
H           0.08169862605703    0.05331755493239    2.39181628734115
H          -0.78565893827191    1.27257840434467    1.98530637257090
O           0.00481827046026   -1.57809721245977    1.88097050370040
H          -0.70485910214688   -1.55270470047606    1.20995165115701
H           0.80890962434477   -1.78564457951695    1.38916904596800
N           1.91325324075983    1.17916461023285    0.49473121429390
H           1.51309256522833    1.50117124553988   -0.43412297896436
H           2.17157315358587    0.18305847709256    0.37017839542273
H           2.71804076045280    1.73598898503834    0.75929589736888
H           1.14066500262614    1.21296045690474    1.27508340601157
