    26
        -50.46538231  Gyration_radius:  2.49550194206 Dipole_moment: 5.261
 S           0.26668843203373    1.96446028477423   -0.19236330239748
O           1.23072093465495    1.14336729594077    0.50149069609167
O          -0.75415291375952    2.51863631192429    0.68790248611906
O          -0.34123634674718    1.29397087449616   -1.33779280111381
O           1.07054694896518    3.19824072456492   -0.77264485803884
H           0.39840906266261    3.79724494885420   -1.08403545599348
H          -1.39577274862593    0.12830053119925   -0.96055018204182
O          -2.03935790927996   -0.56554314778275   -0.66662862085766
H          -2.57309937812298   -0.77431677248312   -1.43490297129960
O           2.07014751502275    0.18952276898440   -1.85776189400579
H           1.19727680540185    0.52163074267442   -2.11024524638910
H           2.15088322216518    0.48486211658591   -0.93752178494029
O           0.47486474398450   -0.75040678171105    2.26016935914887
H           0.33565484883971   -1.51244080943850    1.63652147725656
H           0.97576937325292   -0.09109255858784    1.74443393697420
O          -0.18797090296253   -2.43499633683501    0.36028041651540
H           0.51252760148686   -2.53990501852435   -0.31635615893162
H          -0.88395848536610   -1.91915735082257   -0.07205751233978
O           1.71884797803899   -2.45235141986525   -1.55057350953203
H           2.58188563375193   -2.82140836982179   -1.35960710436993
H           1.86655308956876   -1.49787770679434   -1.74347287477418
N          -1.77017638080431    0.42378051565971    1.86364851016653
H          -1.43337783876280    1.35819397649157    1.49240956867556
H          -2.17056077779503   -0.08107193830512    1.05873671973370
H          -0.85955243944818   -0.11353302926736    2.17549851778255
H          -2.44156007817021    0.53189015808675    2.61542260855480
