    26
        -50.46831507  Gyration_radius:  2.50832455835 Dipole_moment: 1.230
 S          -1.34947054743056   -0.13233313972440   -1.33438987093095
O          -1.39010831175229    1.22230411351346   -0.80919346344672
O          -1.57762471565375   -1.13780145131374   -0.31708050972086
O          -0.12251328754759   -0.37604539208606   -2.08114017507829
O          -2.55039686442394   -0.23331176568500   -2.35835616164195
H          -2.63106712330555    0.66618430531457   -2.65951530374277
H           1.08227567978786   -1.51451841607336   -1.76867846689012
O           1.82497804429956   -2.07922691166373   -1.46262481718013
H           1.72948197997645   -2.91687928070642   -1.91736149059268
O           0.70869829456852   -1.61575639941031    0.97531312205542
H           1.31063997362895   -1.92228110794999    0.27313582752466
H          -0.17823111125027   -1.64932029280168    0.56705114211965
O          -0.32319627468143    2.09990796423225    2.88486988569464
H          -0.92045501983113    1.33450116805617    2.74730805770526
H          -0.87461046364852    2.87945692307026    2.80546880112383
O          -1.77250587850706   -0.09867653312500    2.19576303142786
H          -1.38941016028147   -0.86346374130706    2.63258866173299
H          -1.86403589778492   -0.35509007788071    1.26029691847892
O           2.26043552132286    0.88690040123501   -1.54698631246304
H           1.40718146040031    0.60753249213911   -1.92399976243995
H           2.79823023934518    0.08918357363203   -1.54820470632747
N           0.78778789179296    1.03878089678139    0.69067483009407
H           1.58178999352748    1.25432999627545    0.05992332965548
H           0.83129942485813    0.01323443870402    0.94390074317332
H           0.71353986124612    1.60945186451814    1.55388104614014
H          -0.09271272841785    1.19293637197279    0.13735565354039
