    26
        -50.46740294  Gyration_radius:  2.56924288152 Dipole_moment: 1.577
 S          -1.51594469886701   -1.58132332761876   -0.75068316575311
O          -2.01716864440178   -0.54033839149004    0.14083227960160
O          -0.89067283838786   -2.66762999217041   -0.03086592252231
O          -0.67516923484212   -1.02474250366959   -1.80091499246197
O          -2.77511940092161   -2.19740827929487   -1.48750007982882
H          -3.06934117963951   -2.85315941483758   -0.86391876516662
H           0.92690363204161   -0.81392894525106   -1.54276716116472
O           1.87370417749572   -0.62840519386191   -1.33253939949816
H           2.37039944353419   -0.88404720047921   -2.11116437310671
O          -1.23480446131345    1.56262664193561   -1.54401858878763
H          -1.91669044995259    1.45465444307499   -0.87376487093577
H          -1.05661301938221    0.64889116759847   -1.84050858342889
O           1.12002617654542    1.84596363304300   -0.34085125405668
H           0.28493353804863    1.92643854345176   -0.86164465962761
H           1.62530740119659    1.14163456250015   -0.77970617446385
O           0.73291424645941    2.85498608246101    2.33130267528860
H           1.01969583102079    2.82151764154174    1.40891525491370
H           0.87273755980576    3.75452909922308    2.62834459384239
O           1.42226509215127   -1.96697805053145    1.07403894177101
H           0.62348765360987   -2.42049058766664    0.73107362804135
H           1.87697049407167   -1.63204400640852    0.28503431759827
N           0.07329126796357    0.24023432768102    1.54156608716672
H           0.52428157368944    0.91572598498699    0.86772412285244
H           0.67641990373556   -0.63089790197587    1.58245491492834
H          -0.01864223442564    0.71257427105841    2.43773145577526
H          -0.85317183923361   -0.03838260330102    1.13182972903286
