    26
        -50.46591980  Gyration_radius:  2.56418499149 Dipole_moment: 0.945
 S          -0.39427685651373   -2.33649485551186   -0.65645627915166
O          -1.84047749725850   -2.35752060267891   -0.70092043088661
O           0.18602302935571   -2.20664988074164    0.65176746609761
O           0.16013033872769   -1.32664147337096   -1.57920654718473
O           0.07441662454023   -3.74048014976326   -1.24629984173402
H          -0.65198077744377   -3.97497853944646   -1.81540878373366
H          -0.56719548613123    0.10623650643129   -1.73069976277536
O          -1.00161560717787    0.99776418798230   -1.72267720973216
H          -1.36402826361969    1.12518091597470   -2.60035633684122
O           1.16597772923884    2.32244330279782   -0.63569475882213
H           1.75195101017967    1.55872993009105   -0.55910465024379
H           0.36267363756488    1.98115620978545   -1.06737344712793
O           0.51650343497012    2.90869753523086    1.86026713581251
H          -0.25753787210645    3.47302918305563    1.83535438609040
H           0.83821472708165    2.83946405909653    0.92519231054336
O           2.04794931218026   -0.31625085969691   -0.11152995383380
H           1.38148780811985   -0.71405473244273   -0.72810084874540
H           2.59531369549642   -1.05248578709021    0.16752841015565
O          -2.06196714082407   -0.06488283417909    0.57414453332605
H          -2.11091350139703   -0.97453018758245    0.20861809343675
H          -1.91991497621308    0.50345626935162   -0.20132550026572
N           0.22452440697176    0.25615609726531    1.85115348051972
H           0.95076559755514   -0.03607644965261    1.15439611395893
H          -0.72472296899306    0.07187566701375    1.39753856876265
H           0.31115782284945   -0.32480726388960    2.67774807333974
H           0.32754179283241    1.28166373197036    2.05144577904263
