    26
        -50.47096521  Gyration_radius:  2.40572781222 Dipole_moment: 5.279
 S           0.71690880213056    0.42143903061191   -1.12677206304913
O           1.90510570654805   -0.41277383277122   -1.15281342186869
O           0.78018365772529    1.40100877093549   -0.03825412277362
O          -0.49757057924769   -0.39062125422688   -1.01322903733161
O           0.64018858231922    1.19102062437850   -2.46517861169833
H          -0.25645608339661    1.62170792218194   -2.44004245240570
H          -1.32492827216174   -0.41418943773474    0.29774176261842
O          -1.79406679047253   -0.54608543785523    1.17554429922521
H          -2.60729672096336   -1.00864700215831    0.96583360956836
O           0.84641649258006   -2.72589597923631   -0.62393956181744
H           1.40811445269434   -1.95879703490905   -0.90015222736438
H           0.00758983493454   -2.52866616697829   -1.05598279002061
O          -1.65944861621872    2.37739401606290   -2.17731571876062
H          -1.79621897878229    2.33068786640194   -1.19768289367190
H          -1.55639807387884    3.30914439606979   -2.38325002341663
O           2.33313492216384    0.04617164086066    1.53459940504337
H           2.87975997793659   -0.29099369680202    0.81475141385413
H           1.77536973528628    0.72138463230752    1.07751763378639
O          -1.65036371426486    2.26524628896853    0.46930289461658
H          -0.69155785068686    2.07127164341871    0.38878775116669
H          -2.01382246736240    1.49183419677070    0.91511841535932
N           0.50316762816823   -1.81265018928131    1.81812721704627
H           0.63849759257039   -2.32397810032084    0.88662802436863
H          -0.42967840176362   -1.34229763332405    1.78021560105177
H           0.57982169865387   -2.43655867666355    2.61381675691668
H           1.26354744548762   -1.05615659669957    1.83662816954569
