    26
        -50.47230314  Gyration_radius:  2.43419151914 Dipole_moment: 1.632
 S          -1.64075344250578   -1.31802092069600    0.05140472619881
O          -0.52476727302625   -1.10611050258310    0.96134558112055
O          -1.35390394483766   -2.25640369374675   -1.00754399537902
O          -2.17372729960345   -0.04915120271068   -0.42123953850049
O          -2.78519048525003   -1.99214136267545    0.92480247463604
H          -3.17708060987832   -2.58453525855914    0.29235566153659
H          -1.26584663214740    0.69573289207662   -1.50078268577501
O          -0.65119024594622    1.12260394606948   -2.15501188827225
H          -1.19923033776452    1.40050399572198   -2.89020190227877
O           0.89505271185654    2.31793744112505   -0.22120996571013
H           0.27689316159611    2.15292735664732    0.52746190946871
H           0.38495770129861    2.08683508137046   -1.01676611740053
O          -0.84989262959540    1.42768789194415    1.60447337644651
H          -1.72034796963730    1.64198065573529    1.25996782229232
H          -0.74732028606472    0.47221397342234    1.40141552160438
O           1.56921299561739   -0.62253624349955    2.50377582675439
H           0.79524592115098   -1.05255899468315    2.09591220989157
H           1.21480817995153    0.14934167392813    2.95411994147490
O           0.89781252962609   -1.12606081353067   -1.80796938632903
H           0.15441356991749   -1.69276216811637   -1.51563381317358
H           0.46802522758103   -0.33660678188766   -2.17847051325358
N           2.31644452646643    0.12916021373957    0.03126886729702
H           1.79590042463875   -0.50346545339893   -0.64760973598877
H           3.30506884633323    0.15612730398594   -0.19075589759454
H           1.86137254403389    1.09319810984275   -0.06792787475350
H           2.15404280619093   -0.20589712950547    1.01281937569959
