    26
        -50.45993439  Gyration_radius:  2.68104137612 Dipole_moment: 5.969
 S          -1.17540703319148   -1.39917647619553    0.47071082631733
O          -1.10901986284445   -1.00986556710182   -0.93244900063885
O          -2.35318821434160   -0.91116504080978    1.14535184356303
O           0.05176073892897   -0.97073353119356    1.17123293010517
O          -1.17274452321215   -2.96648132059814    0.48090201575730
H          -0.95780242436131   -3.22433178376929    1.39935504659061
H           1.19074846575935   -1.12134906778241   -0.04299599942902
O           1.64706573616384   -1.16326779642017   -0.91207981501811
H           0.93387132340745   -1.39892129710536   -1.51644061263444
O           0.35949443700946    2.89991030919741   -2.87624656366009
H           1.15092388814544    2.47615533555222   -2.51775455244697
H           0.50043460191645    3.00005562990347   -3.81819310237621
O          -1.47800743261394    1.45272172899497    1.82597581920848
H          -1.97874303153929    0.61880736115229    1.65275580584451
H          -0.74559428171178    1.17564690874749    2.38237686033585
O           2.12638628821570    1.39901703695109   -1.15398483816251
H           2.85509739615235    1.60871700026333   -0.56839453869915
H           2.05059142020852    0.40468011766950   -1.15286709793631
O          -0.03684509231331   -2.96765288619513    2.88862257723264
H           0.81355297868944   -3.41195185088035    2.91624789980833
H           0.11454710147163   -2.10127903283082    2.46007696438114
N          -0.56652835552012    1.54464174958338   -0.66206500021468
H           0.47265821424184    1.58712912702164   -0.67565782750154
H          -0.84634510383632    0.55487989520012   -0.91229193233465
H          -0.94486486383723    1.71492589158412    0.30913087960195
H          -0.90204237085224    2.20888752907252   -1.36131859757568
