    26
        -50.46833179  Gyration_radius:  2.4835931488 Dipole_moment: 1.261
 S          -0.67000212439563   -1.08310043091413    0.23915672476078
O          -0.66197586643883   -0.17484604699578    1.37231324632558
O           0.64493439290504   -1.15420901035115   -0.38801616283335
O          -1.70092499093851   -0.73699634808409   -0.73759434740796
O          -1.00698568113912   -2.49716124949665    0.80304217906871
H          -1.18429906534608   -3.02445057470052   -0.00124429689657
H          -1.58530157840346    0.87234131572188   -1.07753751078586
O          -1.41533745802308    1.81367902079908   -1.31451079917463
H          -2.03452318984966    2.03126132055598   -2.01323396674160
O           1.26188105830862    1.29400814485323   -1.29590314535132
H           1.11248427794643    0.33254743248197   -1.20152911822672
H           0.37767262437489    1.66963852990191   -1.45336344409016
O          -1.75615011264172   -3.20410701140491   -1.62769394219865
H          -1.80009302596711   -2.22834760678592   -1.57210213637526
H          -2.65915123322865   -3.51428111089016   -1.72790396316519
O          -0.87312573796787    2.64859894262252    1.35462933231410
H          -1.13280415599032    1.76703469123192    1.64633084837040
H          -1.10418056336550    2.66842907948053    0.41738726070938
O           2.87552894742860   -1.04810911199484    1.07239187077509
H           2.05566779053491   -1.22363941137034    0.56110534803425
H           3.59770300123639   -1.35721488607183    0.52330809153935
N           1.55810495179969    1.25663696369668    1.31120219998828
H           1.55849472006958    2.09214826874014    1.88856361325698
H           2.33758646929756    0.59664609725949    1.48157048119206
H           0.66470371818109    0.71419517251870    1.46871353272676
H           1.54009284160890    1.48929782919325    0.27091812418485
