    26
        -50.46970075  Gyration_radius:  2.40987134336 Dipole_moment: 5.422
 S           0.01393376588579   -1.22754068683703   -0.50066285485107
O           1.32030403284373   -1.04881538463484   -1.10952352166969
O          -1.07261568404017   -1.21139409383767   -1.46761359003590
O          -0.23294835693578   -0.21585509825374    0.53773107493419
O          -0.01876597674717   -2.60789964617304    0.20785986214926
H           0.88082988026853   -2.66014793231869    0.63800682457906
H          -1.75483649712202   -0.27707583825908    1.22424553068133
O          -2.72793991866516   -0.25456226933062    1.37303572425532
H          -3.00050128007754   -1.17004943141041    1.45236888797590
O           1.84979234474107    1.49702196806581   -1.07578491211961
H           2.22418371025519    1.71321591229877   -1.93119108807581
H           1.66685930950513    0.52535244182722   -1.09521197372436
O          -0.46464042766319    2.53409882197634   -0.18385623050333
H          -0.42993024831859    2.20086862217264    0.71820146995841
H           0.38803424582076    2.24215314544503   -0.57680766924825
O           2.42309457132233   -2.32643787409637    1.00420995211864
H           2.60280512489745   -2.08684150267451    0.08573041465516
H           2.43778537383064   -1.47008807790039    1.48430537979083
O           2.11585318334331    0.27184053227325    1.67469863875985
H           1.19858316387408    0.14602526450978    1.36104660896208
H           2.52222439311233    0.84847090412354    1.02060294409427
N          -2.41785149102370    0.93834946700300   -0.99269922148157
H          -3.09426936755944    1.27734630004939   -1.66747591869819
H          -1.90021585448980    0.06293986593814   -1.32961773384768
H          -1.67366738311781    1.66203866298130   -0.75676512018490
H          -2.85610060393789    0.63698593705978   -0.09483347847065
