    26
        -50.47201791  Gyration_radius:  2.517298278 Dipole_moment: 1.446
 S          -0.29012927843941   -1.92706728598368   -0.44584266002401
O          -1.12097126333792   -0.73730455154479   -0.63266219756617
O           0.32619816323781   -1.94538361874097    0.86390448194440
O           0.63460537441230   -2.10837103227217   -1.54400923449474
O          -1.27476426014700   -3.16519633393246   -0.48345425330525
H          -1.46758342418186   -3.23546657076480   -1.41225929829814
H           1.53650377704338   -0.77713794486893   -1.72073046423509
O           2.05633528479173    0.06477768015301   -1.74389921754140
H           2.80712596606523   -0.10122908454459   -2.31646773993891
O          -0.94791885523953    3.26377797217992   -0.21408925627760
H          -1.78412375724034    3.66142884050489   -0.45884075862546
H          -0.67478639840399    2.70629275479908   -0.98428509579206
O          -0.33551885716230    1.45045073499094   -2.06379522643308
H          -0.76951684753137    0.65814286883198   -1.70347617888933
H           0.60424449856576    1.21515051700083   -2.08761983522306
O           2.00213288564748    0.17429287439057    0.99141816217679
H           2.21102223602316    0.28469949727907    0.04734932689019
H           1.62558610052966   -0.72064559368776    1.06505931775597
O          -1.10215145328907   -0.95423893509432    2.91909622740002
H          -1.02646020266210   -1.52470475783803    3.68457565090641
H          -0.61826969431386   -1.40404462615531    2.19750116047498
N          -0.48975863896540    1.05271579629848    1.22875521161769
H          -0.85243242572191    0.36930984952128    0.51895941502290
H          -0.87548211034517    0.77372784348825    2.13560974753484
H           0.55658351934267    0.90876425180885    1.24077959460645
H          -0.73047032865719    2.01725887418257    0.91842311031187
