    26
        -50.46591988  Gyration_radius:  2.56446764176 Dipole_moment: 0.952
 S           0.84551517211241   -2.13387967192893   -0.88288443871090
O          -0.00365708601509   -3.06723511406888   -0.17473551727545
O           1.80732366609435   -1.43329898043157   -0.07707711145030
O           0.05239903535309   -1.18919920877800   -1.69364499813375
O           1.65804483300720   -3.00779587398938   -1.93890561978203
H           1.07243920666708   -3.74389178608947   -2.08677506315056
H          -1.32655517680094   -0.59054991456965   -1.10560556490834
O          -2.11871627962391   -0.18834569453654   -0.66485602616811
H          -2.88000611252908   -0.47939822204440   -1.16853257526382
O          -1.08687908728175    2.37373640320328   -0.58124449936186
H          -0.23983544665359    2.17932087257673   -1.00214665601761
H          -1.57643411391482    1.53227792707755   -0.60021026954187
O          -0.47240225499029    2.86298471093676    1.94456311356624
H          -0.74921179249778    2.84244006552508    0.99296460747658
H          -1.27872480150334    2.80247772094736    2.45880643806556
O           1.31842012902414    1.02849173832844   -1.22797894826646
H           2.23616979126298    0.86645865742467   -1.45374403688252
H           0.84324082414632    0.19665598319640   -1.48296172470085
O          -0.84621334762400   -1.24208264878892    1.52552248727051
H          -0.51539939212088   -2.02682719775234    1.03752967792776
H          -1.52919384046990   -0.86371548146286    0.94675855699637
N           0.97112384236493    0.66980654422775    1.46548323329996
H           1.19344360951425    0.78022696459691    0.44724481053675
H           0.28851302382318   -0.14819049904480    1.54153441732901
H           1.82273362784236    0.43312075179747    1.96251462537276
H           0.51386198082215    1.54641194364437    1.81838108177046
