    26
        -50.46207876  Gyration_radius:  2.61220919621 Dipole_moment: 3.884
 S           0.97694799394302   -1.91239319352481   -1.31430087620761
O          -0.14759703724279   -2.02810945369758   -0.40447759904010
O           2.08948146512758   -1.18259922528143   -0.71368025806783
O           0.61394371171633   -1.37501358918987   -2.61265370850446
O           1.49184926193405   -3.39027293145314   -1.56602361395776
H           2.09635066020012   -3.28252347322779   -2.29381007910992
H          -0.17429209001153   -0.00098161221994   -2.41413569214175
O          -0.57692211363797    0.87699522043914   -2.17903121794040
H          -0.44831858427259    1.44316521983752   -2.94157732485931
O           0.31469483091973    3.03399864656944    1.67912413998179
H           0.16161748326726    3.84813550949219    2.15771146510051
H          -0.46049597275787    2.45829608130560    1.85627882378021
O          -1.61617931566416    1.15656010660656    2.00970357451383
H          -1.27826519937421    0.41154362561376    2.51740233377594
H          -2.00769056172623    0.74946053868165    1.20911677299186
O          -2.24427368619616   -0.22215732778338   -0.24228762712780
H          -2.03282333285756    0.26708060744011   -1.04626340434212
H          -1.67636970549644   -1.00863661638639   -0.27027067225556
O           0.14443308257380   -1.07251636601861    2.02674034521931
H           0.95850241247176   -1.42835562151734    2.38548196548491
H          -0.02986278222825   -1.57937149105533    1.20213131524660
N           0.78337765782946    0.86900415417154    0.18953980219702
H           1.52374548891377    0.20129941399149   -0.15658735153742
H           0.13410151444364    1.03874918279943   -0.60413400319086
H           0.29576543782778    0.36226796617924    0.95796936579795
H           1.10827937032811    1.76637463819492    0.56803350416447
