    26
        -50.47150699  Gyration_radius:  2.41377889665 Dipole_moment: 3.775
 S          -1.12446016310238   -1.14131205888713    0.15697822355058
O          -1.81681054132706   -0.79881650035174    1.38640000714838
O           0.30452962130007   -1.37261932567055    0.38847636510087
O          -1.31320746254464   -0.11017298531142   -0.86773508264253
O          -1.73566058834672   -2.46080010438053   -0.37345241895012
H          -1.16376487546878   -2.72177894777920   -1.13730253359290
H          -1.09834987564899    1.40652560789403   -0.47945493713841
O          -0.90337495954346    2.34463921995156   -0.19989260700097
H          -1.51836481161300    2.89663936744284   -0.68502691131411
O           1.85932891945228    1.76318104415059   -0.49831074043812
H           0.97413855277931    2.15473226403281   -0.48277256453042
H           1.82586735458471    1.05281942028370   -1.16018196732712
O           1.08200420711921   -0.52082209413593   -1.93972615160258
H           0.19941589735171   -0.13696627382171   -2.05572846557793
H           1.02640618985518   -0.87586752773153   -1.02357976043981
O           0.02357448064468   -3.00572678947815   -2.25355781246989
H           0.65127201932323   -3.61169290284427   -1.85316787712235
H           0.50046174981502   -2.15826366662987   -2.37694872908641
O           1.76043310536463    0.38387914911853    1.78853345683195
H           2.01773641937779    0.94220788277599    1.01731568372347
H           1.38870274556989   -0.42661103018855    1.38683382478301
N          -0.59890696628962    1.30571159328520    2.28424052475418
H          -0.76636903668710    1.98032756129519    1.51726121435795
H           0.44144965755659    0.99203862672866    2.22582468320492
H          -0.84709730986528    1.68360901444819    3.19146421145810
H          -1.16895433944788    0.43513944577880    2.04351033426473
