    26
        -50.46578671  Gyration_radius:  2.39289539112 Dipole_moment: 8.548
 S          -0.23097121191091   -1.07171069332914    1.21015101069242
O          -0.87144380291435   -1.18871854642753   -0.10028291302433
O          -1.11688268227318   -0.39502407769819    2.15588440819994
O           1.04007966727094   -0.35008954643292    1.11425620168809
O           0.05220047957790   -2.49027019301508    1.72846065272246
H           0.37603711141037   -2.97059018896119    0.90109674177199
H           1.17012245869109    1.18019293839386    0.78558825185058
O           1.14733216290617    2.15905341631436    0.58599218654981
H           1.92150194819948    2.53030646552483    1.01201009384795
O          -1.92756998867208    0.81378720096756   -1.28237499853754
H          -2.71137378098714    0.51028002706772   -1.74271832902628
H          -1.51743270169779   -0.00203933671840   -0.87049095334881
O           0.86618693312885    1.04556459767831   -2.08067636183438
H           1.10662268995497    1.57452489578787   -1.31003248475402
H          -0.09345003154633    0.96041651475072   -2.04721208023086
O           2.21211022855237   -1.23489847872156   -1.12769837898727
H           1.83462082648484   -0.57618116425384   -1.73377104017078
H           1.96281023370228   -0.91127650732610   -0.24396076383037
O           0.68770246041735   -3.34391011167618   -0.59909303597945
H          -0.11755479523013   -2.91831057091199   -0.91862805903467
H           1.40857497306299   -2.72888104620176   -0.88094829562028
N          -1.46050507614715    1.91575464049646    1.09918689238194
H          -0.48227979992364    2.26361663975183    0.97740571378452
H          -1.82408398798431    1.67222888987673    0.14812218599500
H          -1.38063082414627    0.97310004218766    1.63721612490053
H          -2.05172346990631    2.58307419286699    1.58251722999908
