    26
        -50.47019920  Gyration_radius:  2.43806628633 Dipole_moment: 2.384
 S          -1.43059384086348   -1.59923432312388    0.40466091670426
O          -1.54579371899996   -1.76899040138691    1.82473523056955
O          -0.31943383436125   -2.28736065596522   -0.21929760782980
O          -1.43021093572991   -0.17935082163939    0.00462088026451
O          -2.76145522032313   -2.20055783803573   -0.22852585706968
H          -3.21008396427058   -2.55389781705101    0.53275944445278
H          -0.68104145622004   -0.29920940310527   -1.46581245876834
O          -0.08529803954624   -0.43580615605654   -2.23626658557187
H           0.03125955161424   -1.39181971994164   -2.24474431398161
O          -1.31350975314176    2.39046585357632   -0.86702895606613
H          -1.54562278136019    1.52791422774167   -0.48627785953113
H          -1.27671579650026    2.25463135575906   -1.81608353186480
O           1.02913323284727    2.51005446026772    0.46020224534239
H           0.78962487773210    2.03776151794736    1.27084312520039
H           0.17810766498249    2.66957083453194   -0.00128228316276
O           1.83006872664855   -1.30632953650569    0.97470291165440
H           1.37434213852487   -0.73930283883799    1.62329399970955
H           1.11700164610067   -1.85007923698570    0.57620626833444
O           0.06874545246716    0.45970424269026    2.11090229607767
H          -0.33868850328914    0.01112312210471    2.85678855463096
H          -0.53868825793119    0.27562623039688    1.36678853323873
N           2.03763639907242    0.50340024703367   -0.90952462407936
H           1.27561937058033    0.19754771328201   -1.57014920713966
H           2.91709581908420    0.64824767687088   -1.39144077318810
H           1.71556346755925    1.38835320767205   -0.40408773349111
H           2.11293772531766   -0.26246194123088   -0.16598260443516
