    26
        -50.47619449  Gyration_radius:  2.40277460268 Dipole_moment: 2.088
 S          -1.24244640262803   -1.17855910451843   -0.03564894798869
O          -0.62459780534734   -0.77683860359203   -1.29051656910813
O          -1.16588224639308   -0.14150595017165    0.97313777153957
O          -0.77598976544634   -2.46973953746327    0.41917254484422
O          -2.79442917925199   -1.35345829727875   -0.34474674458025
H          -2.81115234886688   -2.23759249788311   -0.69356620500345
H           0.72144969069916   -2.17133510005344    0.96363673516116
O           1.64728890431840   -1.94836099755625    1.23118931234683
H           1.99352561525669   -2.73395977936341    1.65862117477423
O           1.13238509248485    0.64779345978362    2.05907719577809
H           0.19156236774102    0.47540819700452    1.86278756901206
H           1.54106931469548   -0.22925434752873    1.97932950334438
O          -0.62811519605617    1.87647040209070   -1.56775921791022
H          -0.66404505915095    0.90196292493678   -1.65008964746279
H          -1.42855966249603    2.09606383886293   -1.05293541712283
O           2.05463215104716   -0.76242886709682   -1.21671166331555
H           1.10786199729850   -0.86420620138809   -1.43887922148231
H           2.16354156228524   -1.27123881925426   -0.39599428707879
O          -2.83102854539252    1.66949642579231   -0.01249614363868
H          -2.28001133794627    1.04109082556533    0.49277552975121
H          -3.54726585127969    1.14554322327456   -0.37590229666263
N           1.66859185002677    1.68900319755084   -0.31041257931135
H           1.99592003386612    0.78990706311267   -0.76879524519904
H           0.73900170440568    1.92733294320287   -0.77924628656503
H           1.49473408942256    1.43925676963630    0.70598324341036
H           2.34195900670387    2.43914881234149   -0.41201013753751
