    26
        -50.46654635  Gyration_radius:  2.47620481356 Dipole_moment: 1.536
 S           0.59584974793596    0.69110233362945   -1.64625679781379
O          -0.43066989447674   -0.29403887579234   -1.34400983883856
O           1.41213514607948    0.96468604158776   -0.47150308590217
O           0.10869936416447    1.85846724405877   -2.33077013975297
O           1.59549825761969   -0.03225753433148   -2.67472283110161
H           1.40228961865045    0.37651266475765   -3.51343899764203
H          -0.74945290394759    2.30079497497366   -0.89501818745835
O          -1.02301071897916    2.39090458048268    0.03487945117997
H          -0.21831814606439    2.58619713708773    0.52050266092796
O           1.36997548801969    0.28815733479338    2.12897407558423
H           1.48602189529764    0.71528681581402    1.25929504327630
H           1.99477695396268   -0.44236625201367    2.13072479161914
O          -3.01406453967379    1.11709967421385    1.39012154874689
H          -2.37822439507793    1.71086293660508    0.94495437717773
H          -3.78334015595373    1.07877224169899    0.81983259335483
O           2.15374103012277   -1.58944106883168   -0.20488806614879
H           1.90827755114558   -0.65473328743938   -0.34276293828360
H           2.57125961844818   -1.85996561316363   -1.02455387822065
O          -0.25461429951515   -2.91899904547346    0.02577896176855
H          -0.60060768041050   -2.51632245319711   -0.77736264043586
H           0.67396573009329   -2.62316407153944    0.05557409349182
N          -0.98355616614061   -0.63698794108965    1.21710451624369
H          -0.16645079081824   -0.28535143136359    1.76921557081945
H          -1.00277264370121   -1.66875007342116    1.21987864595142
H          -1.86598122210269   -0.16975740041518    1.50115792279921
H          -0.80142687467312   -0.38670893163417    0.20729314865873
