    26
        -50.47056400  Gyration_radius:  2.52715283144 Dipole_moment: 1.046
 S          -0.40722716092166   -1.56795757216217   -0.92645392260839
O          -1.18001207704064   -1.00660046782921    0.18051290124466
O           0.92873131741620   -1.93247058884774   -0.52683315919516
O          -0.45535884246473   -0.69373797117922   -2.09196695848517
O          -1.13639895351138   -2.90781763356143   -1.35476280896712
H          -1.86471314965220   -2.64626360902404   -1.91189732844768
H           1.10219820899779    0.11488315954610   -2.02591361746853
O           1.91455456931712    0.39274841049490   -1.56144399245238
H           2.30705683190356   -0.44107776305415   -1.27857889180168
O          -2.37056113915812    0.99741375245835   -1.29598771958410
H          -1.69096695395023    0.50119396702802   -1.79052428055421
H          -2.52740930478405    0.45023423193057   -0.51765378580899
O          -1.10838429148049    3.10674363794886   -0.24249306069739
H          -0.84229058013381    3.70712108608371   -0.94019518263296
H          -1.69748122789108    2.43665131612882   -0.66320315395829
O           1.66328541371791    0.34472662175468    2.87945692548330
H           1.29700492357235   -0.56242199618581    2.73992889276802
H           2.60423003994999    0.23472569198158    3.02144491942955
O           0.61149945251236   -1.98244186786811    2.12414112094786
H           0.88178072131672   -2.08916918361794    1.19124285013130
H          -0.34128327208913   -1.85771374177525    2.07656571720587
N           0.46870486518628    1.09715344831409    0.59535676485189
H           1.14821935925777    0.94905694639459   -0.19166820008921
H          -0.22658196825023    0.32117610612231    0.54532490929069
H           0.95798077648759    1.03407511109705    1.51567055238462
H          -0.03657756831146    1.99976889783473    0.44993052901267
