    26
        -50.47070299  Gyration_radius:  2.52753212504 Dipole_moment: 4.147
 S          -1.47542818803746   -0.18621983619066    0.16398915921731
O          -0.74545706179948   -1.44260818092925    0.23948063409241
O          -1.12071796024300    0.57557105431864   -1.01588286152130
O          -1.28092680015595    0.59418332613062    1.39344177145690
O          -2.99539258156848   -0.50963988782873    0.05243386691397
H          -3.21265776796515   -0.86215704604754    0.93732028978877
H           0.27000281663947    0.93568554292726    1.66228603545599
O           1.23944949197387    1.10515136136348    1.78678885919383
H           1.32581979855643    1.54911981689569    2.63174926160903
O           2.37184594398776    0.00246763036614   -2.01476717113634
H           1.62834809932899   -0.33701061601499   -2.55943900489039
H           2.07970895168224    0.90331187416174   -1.74121665124481
O          -3.04985172307859   -0.85162426333204    2.67607003540436
H          -2.28845099565664   -0.28252341665047    2.44169087451346
H          -3.68464630602685   -0.28918452729010    3.12582914072418
O           0.01149071756192   -0.70164903143270   -3.05856655646298
H          -0.34209530618588   -0.27512255377379   -3.84091681905593
H          -0.47625363852206   -0.31635050097794   -2.30060231605281
O           1.13746661354104    2.07411053615535   -0.88273192599065
H           0.24879557295382    1.69114342423139   -0.99882417566838
H           1.32111641315552    2.00145560526338    0.06287180644385
N           1.82983691356652   -1.09450984154284    0.26028308426413
H           2.37678849578116   -1.90222658970913    0.53603087080334
H           1.89816887025489   -0.33423460412482    0.95386809844220
H           2.13848478405797   -0.70612797732125   -0.71455749152986
H           0.79455484619968   -1.34101128864890    0.20337117522774
