    26
        -50.47771716  Gyration_radius:  2.37001447731 Dipole_moment: 4.705
 S           1.33475165672785    0.62068076646047   -0.01313732303935
O           0.27778362902902    1.24117191371722    0.78887332120018
O           1.40412402103084    1.17826028705090   -1.34506018870036
O           1.14443263917936   -0.83519681863741   -0.06344298687641
O           2.68896544136163    0.88014163739964    0.70011225500666
H           2.50102416779935    0.61587831901817    1.63044154446931
H           0.68185860453977   -1.18920942132165   -1.61861575619232
O           0.29860292714654   -1.11213106978188   -2.52181979126377
H           0.78029250969138   -0.36777050295723   -2.89875802833476
O           1.50362645540723    0.21356640775123    2.94540375648407
H           1.11782076369822   -0.67737296011574    2.90536391299905
H           0.84533412705125    0.78972511322871    2.52834332201465
O           0.20732046308525   -2.07702809077534    2.01396567608209
H           0.51146656589282   -2.98533675895114    2.03422500281990
H           0.59645585856961   -1.67166285155153    1.19980911348229
O          -0.94034655080444    2.35090281623446   -1.46013052165454
H          -0.99868478010810    2.57878402585655   -0.52616902798351
H          -0.00974406258587    2.04351565467168   -1.55866512490731
O          -1.78842983957476   -0.39479118525049    0.97160197276270
H          -1.07705986024715    0.28361260961471    0.99223085006080
H          -1.39396352625021   -1.16457327081278    1.40595190730650
N          -1.96784695000341   -0.07760075707274   -1.63862589043635
H          -1.15421609505142   -0.59292515704158   -2.08701438616611
H          -1.70438687444072    0.95274665862793   -1.65281690129025
H          -2.84352298455750   -0.25353198204553   -2.11820386570659
H          -2.01565831621343   -0.34985540319338   -0.61386283232382
