    26
        -50.46863466  Gyration_radius:  2.40826222016 Dipole_moment: 3.380
 S          -0.39879652611908    1.49246906747664    0.88183271463751
O           0.90277883796099    2.02052553884920    0.49240263859657
O          -0.30098576650277    0.15650527058422    1.42054691170387
O          -1.37695044413071    1.61234698924097   -0.18325507110802
O          -0.92403097467636    2.40943949642177    2.06271135765107
H          -1.13836199260524    3.22281044791350    1.61797833805411
H          -0.94940293003453    0.48014034988988   -1.34727935412598
O          -0.47350518214205   -0.13461681868314   -1.94563307969721
H           0.32181668695031    0.36543142220482   -2.20708250425321
O           2.48758150025731   -0.18053442280681    0.28266678933702
H           2.79841696633118    0.19517175344989   -0.54918104524087
H           1.91718654309029    0.51172285918446    0.66346977955501
O           1.70140541872248    1.50722360302821   -1.96466939738965
H           1.72729146181558    2.30142269824142   -2.49975695940679
H           1.40595171171653    1.79100062763710   -1.06767860455761
O          -0.88444279957924   -2.53704064961132    1.65305012640416
H          -1.76003809326263   -2.26954280100055    1.32798452834384
H          -0.56642849373668   -1.75327594096166    2.12090986673144
O          -2.71067234831214   -0.79225433955545    0.62526097315817
H          -3.06839359896759   -0.31368106314106   -0.12469842936232
H          -1.93582707196395   -0.27793417329030    0.90942364186805
N           0.65073514299985   -1.98898553261902   -0.44326387915700
H           1.00865997141544   -2.79053519863212   -0.95087758448724
H           0.09480401930085   -1.34296482601798   -1.08129054701016
H           0.03771816448605   -2.29088963682684    0.37026469485903
H           1.43348978698683   -1.39395473097434   -0.06383591510353
