    26
        -50.46737653  Gyration_radius:  2.46923844153 Dipole_moment: 5.847
 S          -1.19292481592806   -1.60580568568888   -0.43243054652324
O          -1.07614206750297   -1.77691122019443    1.00950621482015
O           0.07750696718811   -1.66215479197808   -1.12000349109778
O          -1.96289311579101   -0.41536213488663   -0.76394054721654
O          -2.03012022668276   -2.84628234732669   -0.94379692619902
H          -2.70976458342246   -2.90448540343729   -0.28151436078458
H          -1.78113139796086    0.93090290834819    0.08706443044454
O          -1.63825605126127    1.74895326847324    0.63242014356315
H          -2.44772456091371    2.25735024999317    0.56764259407475
O           0.84257787706190    2.19844792356473   -0.67141409725535
H          -0.01037732121268    2.27168376265133   -0.22185848105310
H           0.66181971102994    1.66653309587636   -1.47432590864573
O          -0.04858296152478    0.53857763803042   -2.61428626443773
H           0.10141844886053   -0.32067526425201   -2.17796172717135
H          -1.00070442203595    0.65980918637021   -2.56498703235710
O           2.26564803898756    0.82586885528823    1.08668688343917
H           2.52670889934033    0.00230303115903    0.61639096499408
H           1.90036966349644    1.42705269312695    0.39078952852057
O           2.60644955606916   -1.41712474250361   -0.31774056309081
H           3.08170032279963   -1.33328457727938   -1.14658199992590
H           1.67939640166378   -1.60906020837474   -0.56217655869001
N           0.02751477243037    0.27260949748852    2.20922772554307
H          -0.34306022211450   -0.62481716942605    1.78972156924003
H           0.04486880794717    0.21652735294483    3.22120363030663
H           1.03277304519353    0.48118845672381    1.79875665346709
H          -0.60707075562848    1.01815563531309    1.88360814603687
