    26
        -50.46621313  Gyration_radius:  2.45250613183 Dipole_moment: 3.913
 S          -0.40860799485404   -0.08764992606252   -0.99416850939064
O           0.55264710159350   -0.37180967405621   -2.05460989032674
O          -1.08496598164826    1.18529331504515   -1.19206633198532
O           0.24994926975138   -0.13096840662860    0.31420751086735
O          -1.50362687724006   -1.18350432210965   -1.02723954201974
H          -1.33481980520779   -1.88189940312036   -0.32608163788806
H           1.83462475409205   -0.45937323544051    0.71434217698810
O           2.81139358931061   -0.58264318338333    0.73747016743673
H           2.95442345262043   -1.53024133260258    0.72187943638448
O          -3.06168459284353    0.70306374523706    0.54068931655360
H          -2.37155491308764    0.98858183125637   -0.08921351607653
H          -3.69314881387041    0.20853751753414    0.01520858553297
O          -1.46568661263792   -0.64748364172872    2.30016139111863
H          -0.70145435160519   -0.35590507548652    1.77091865199375
H          -2.21064836886333   -0.15694952354777    1.90604040119440
O           0.82918369490416    2.70625138114845   -0.23406115837323
H           0.76144956007751    2.50259708755850    0.70242807483807
H           0.04154401633282    2.27945599546514   -0.64454187363453
O          -1.30904178723975   -2.86153306065448    0.91718114795019
H          -1.36427022937829   -2.13235627600697    1.59652774286879
H          -2.13235299472663   -3.35046679985858    0.97612251971835
N           2.56327107441215    1.04767674946172   -1.34834706164119
H           1.79326723316807    0.43650819459773   -1.79224212952577
H           2.02790504445718    1.85179567157307   -0.91588392345881
H           2.96333858301380    0.46714862258557   -0.57646212187417
H           3.25886593946619    1.35587372922515   -2.01825940723809
