    26
        -50.47070303  Gyration_radius:  2.52695840116 Dipole_moment: 4.158
 S          -1.24905596918921   -0.60487070950178    0.56138034196650
O          -1.49105775831265    0.68039476029637   -0.07634860007365
O          -0.16488124504587   -0.53796306389070    1.51956312110379
O          -1.01612094801338   -1.64363474391328   -0.45112830676888
O          -2.52884507546082   -1.00524968261880    1.35478620004486
H          -3.17552440857801   -1.19788885973862    0.64838014172779
H           0.25032004408533   -1.31289181804906   -1.38905482454617
O           1.02857474834394   -1.05179618482528   -1.94623141169071
H           1.09889236125834   -1.71599298080438   -2.63358864649490
O           2.37039354664207    1.94133936241331    0.54031889674256
H           2.61330355395902    0.98817264675065    0.60555271686240
H           1.78692716518916    2.09511245305015    1.31524409786993
O          -3.58576334267160   -1.85718282975323   -0.91753403906855
H          -3.85851066620338   -2.77740516245971   -0.89864524197929
H          -2.60994301736254   -1.85602119516814   -0.99651780315761
O           0.53071941978339    1.84603846571016    2.48052728141571
H           0.16971731711766    0.99987068438607    2.14243069958090
H           0.76609879803434    1.68295013623644    3.39544175963745
O           2.35993653792991   -0.72251497166967    0.54198149562356
H           1.51089525853597   -0.78386713950444    1.01652359417846
H           2.15956398155287   -0.98213224191178   -0.36670824522801
N           0.60809365545916    1.58276986222454   -1.31420788251299
H           0.90185608528235    0.72659822037895   -1.80870941011752
H          -0.28516634672414    1.32355520404228   -0.79366863607460
H           1.37009049206695    1.83543467222720   -0.57149133010073
H           0.43948581217130    2.34717511577905   -1.95829596933587
