    26
        -50.46740329  Gyration_radius:  2.56911354407 Dipole_moment: 1.603
 S           0.15926655412152   -2.05284923394044    1.05976773708264
O          -0.03783796678457   -0.87655126120986    1.90111850145193
O           1.54557381953650   -2.24299138866719    0.69821958671062
O          -0.74098449895331   -2.04835967649763   -0.08422314347354
O          -0.25669678225967   -3.30961007998487    1.92883894131744
H           0.53524234567209   -3.47848191442926    2.42868026103375
H          -0.30621545779646   -1.28856946493219   -1.46690660708725
O          -0.04977215351590   -0.75884564789444   -2.25977288172004
H          -0.30102490080651   -1.28568924058702   -3.01979487141871
O          -1.19893224014505    1.47043563922982   -1.08357138769099
H          -1.82354569833641    0.97931500269103   -0.49720104085556
H          -0.90973338309063    0.82088415667305   -1.74573870992823
O          -0.09613912611597    3.74403777517154    0.30162311466417
H          -0.65058646762458    3.23417964779201   -0.30403429948561
H          -0.44922903408425    4.63401219444113    0.31141926169431
O           2.42085352031873   -0.40639912727969   -1.01096314972495
H           2.28757558578199   -1.17433753643297   -0.41610790216818
H           1.75606864801234   -0.51382424389673   -1.70954164973089
O          -2.43287086226934   -0.13038946766362    0.64483731664162
H          -1.98438098302713   -0.93902573415355    0.32930827450484
H          -2.05878648777702    0.00944721340227    1.52028038698136
N           0.93691929254357    1.13889790628662    0.51218690686655
H           0.12379898167436    1.35384836827407   -0.12518058876817
H           1.22585599473892    2.01059301642871    0.94957817326575
H           0.60788364782621    0.42418952704907    1.20853096131884
H           1.69769766236549    0.68608356013134   -0.07135318147827
