    26
        -50.46012445  Gyration_radius:  2.4986613954 Dipole_moment: 7.373
 S           0.12937718846292   -1.27065402284669    1.49516280348024
O          -0.09202572921734   -0.02882376044407    2.22077079787488
O           0.75141554042850   -1.01740786260182    0.20331499317614
O          -1.01829444988879   -2.13784719430374    1.45324219369179
O           1.24562134974406   -2.06513897445307    2.32122970138833
H           0.74629855945747   -2.73036429549608    2.78507904665962
H          -1.83000130753445   -0.99297266835668    0.57621969946109
O          -2.29876361818508   -0.26333940345233    0.12141160882495
H          -3.15792411411090   -0.19505191309262    0.54339584812451
O          -2.23769859382369   -1.07821978039256   -2.65126050591348
H          -1.30788379862461   -0.89848194573225   -2.82402911269451
H          -2.36307744269077   -0.90499749373044   -1.71024559571049
O          -0.93910911032241    1.75518349854502   -1.17360312702195
H          -0.45602899209560    1.19000890418161   -1.80827256324797
H          -1.58224315054828    1.14973465275186   -0.76474273755911
O           2.87310566611249    0.51788629148801    0.30058793766174
H           2.15855568563208   -0.15642657976824    0.22029491818224
H           3.46265567508460    0.19215802827844    0.98218340040809
O           0.51882083876821   -0.20492083245409   -2.33377645979196
H           1.42480677783766   -0.16829359188498   -2.64433264246123
H           0.54975987551632   -0.62088028465644   -1.45042238368006
N           0.69600689384468    2.02070709180387    0.83382979348970
H           0.69691178238399    2.92390747604084    1.29406406028785
H           0.04639911181984    2.01114328986581   -0.02908120489973
H           1.65298457224612    1.71870498854833    0.56215770760280
H           0.33033078964105    1.25438638223146    1.47682184269776
