    26
        -50.47097828  Gyration_radius:  2.46987988604 Dipole_moment: 3.298
 S          -0.62816939736226   -1.52896793906529   -0.07391500736459
O          -0.85338323351117   -0.46633445441816    0.92248913323322
O           0.40736046218742   -2.43777752294473    0.33756693175895
O          -0.37707315653791   -0.93977427669220   -1.38274733898822
O          -1.97409175202442   -2.32916164487587   -0.16686599025090
H          -2.64885704397025   -1.65062883077254   -0.32534639549974
H          -0.94792372622354    0.64612565154297   -1.65701127858227
O          -1.35012726652173    1.53722937592357   -1.61571285288869
H          -2.21541212062817    1.39222679532153   -1.21709000068986
O           0.46997325519655    3.09358536680390   -0.48818421366258
H           0.95120093699502    3.46780304411160   -1.22799509004040
H          -0.28043964071678    2.58672458778423   -0.89059862012714
O          -3.21828723853580    0.10396848487259    0.03310308830109
H          -3.88236777481135    0.22180299260348    0.71509491706340
H          -2.34834785047229    0.05219212933101    0.49121013943913
O           2.12710037708555   -1.31651150327691    2.08737410651114
H           2.34964425567140   -1.96930424192304    2.75228814825303
H           1.48245814433882   -1.75518035219265    1.49901575336569
O           2.24506140441720   -0.74954279645123   -1.17164254710876
H           2.45250408976425   -1.57582700147780   -0.72533284786516
H           1.32062973015749   -0.85650440359069   -1.47914292677107
N           1.40085774332446    0.91998715221545    0.72957675283778
H           1.88881908032441    0.34545020086251   -0.01096281418094
H           1.17374901212742    1.87851934946392    0.36224702849252
H           0.49544301277749    0.42310522795279    0.92354106775994
H           1.95967869697402    0.90679458889014    1.57904085702798
