    26
        -50.47095889  Gyration_radius:  2.4216673395 Dipole_moment: 3.072
 S          -0.09230037250638   -0.04616120848066    1.86315486140300
O          -1.48283961218357    0.11404523354065    1.43883296497184
O           0.82095096443178    0.67990015999534    1.00221301206781
O           0.26564438872229   -1.43324350130403    2.04368678199552
O           0.01481349182994    0.64737468001375    3.28064505631606
H          -0.47920896751137    0.05220803730095    3.83454517667303
H           0.30177929357254   -2.31866521961921    0.56145258574383
O           0.40181107467261   -2.48462845031896   -0.39826179268550
H           1.27385747844477   -2.09906467969703   -0.59906267413469
O           1.50195523117976    1.23616189897073   -1.61845677343455
H           1.27294541736197    1.21359347458381   -0.67615524904874
H           2.16850185601430    0.55253273133015   -1.72675763862257
O          -1.30737111027218    2.45301476216715    0.11447769420550
H          -0.41269432094831    2.73458305657653    0.32042388507876
H          -1.46450242424607    1.66863645666469    0.67056955886561
O           2.64116812601903   -0.98402514072026   -0.06783913618648
H           2.04725235212541   -0.38090648905891    0.42304920550861
H           3.18249464754188   -1.41899068274552    0.59258118670966
O          -1.09033320571747    1.25132412738157   -2.29552727316913
H          -0.11200958279218    1.28092433337263   -2.31040561365144
H          -1.32992274366667    1.86121241886067   -1.56545946935576
N          -1.64049561242056   -0.93095345775494   -0.99426255664837
H          -1.42671665750061   -0.08651873710271   -1.63821252957225
H          -0.82469463644065   -1.60714245816157   -0.94615087805844
H          -1.74174315763812   -0.55011614145703   -0.02324270439492
H          -2.48834190806013   -1.40509521433508   -1.28583768059407
