    26
        -50.46725614  Gyration_radius:  2.60240243235 Dipole_moment: 3.997
 S           0.79197163574830   -1.18185403356318   -0.80669729364402
O          -0.35098486254603   -1.34976548908058    0.06809221478045
O           1.99785480624984   -0.84028961405386   -0.06298165722786
O           0.53240858129456   -0.17465498253367   -1.84555815653639
O           1.02494897961642   -2.54272339828539   -1.52789989311360
H           1.64505376975451   -2.32421354165495   -2.25293627335904
H           0.22458504033743    1.23187002665231   -1.13455681570868
O           0.02954126217205    2.06457704949227   -0.63034253948821
H           0.24049172145284    2.78930732391297   -1.22119301059579
O          -0.56983399602013   -0.61111446797437    2.66797078988678
H          -1.44199804017830   -0.14996099617282    2.68473002095174
H          -0.56830776052173   -1.13284497222188    1.84426911242268
O           2.23467158776025   -1.27662056023771   -3.51059827375077
H           1.81957573189516   -1.42129238163901   -4.36402398179906
H           1.66891438084232   -0.63845092249081   -3.03014636212492
O          -2.88535336660521    0.66153483314967    2.32824637980920
H          -2.77054197070606    0.65764953317872    1.34565289833402
H          -3.68898311556972    0.17001902499756    2.50261883461451
O          -2.30949733568565    0.47477385018733   -0.25339590127422
H          -1.70005611188892   -0.28813410893480   -0.23538940028721
H          -1.75095754771663    1.23257521534444   -0.46666144888795
N           1.17892508464548    0.96331252809141    1.60040798043221
H           1.65271048426590    0.23059601353896    0.98239865054541
H           0.69806142353575    1.60807476429419    0.95087673998300
H           0.45057844603757    0.39926583725499    2.17741269863820
H           1.84622115186003    1.44836344865269    2.18970465728796
