    26
        -50.45866536  Gyration_radius:  2.70365360118 Dipole_moment: 5.327
 S          -2.38510136318094    0.13663627054476    1.13926823855515
O          -1.60181654446180    1.23583124709546    0.61482894974317
O          -1.68800870110057   -0.60105630505859    2.18253571547816
O          -2.89444067660574   -0.75561306766598    0.10694236068401
O          -3.66317280447266    0.79059793515318    1.81869541541941
H          -4.18333806535767    0.02846027792767    2.05229701183721
H          -1.63238879565873   -1.36787377704222   -0.53432896447528
O          -0.79989799031017   -1.74455155700855   -0.95005717224210
H          -1.03419483920942   -2.62829256613817   -1.23843626656101
O           3.33620882290603   -0.15365006741645   -0.94648254244503
H           4.02078036300117    0.29738023719269   -0.44929236301757
H           2.82569306489728    0.56446020858064   -1.40597405798590
O          -0.59353011141065    0.93393099815633   -1.83264612186926
H          -1.02963121043511    1.18284405130641   -0.99277892149583
H          -0.64716915744495   -0.02938098593105   -1.85920392584023
O           0.50634571881055    0.73541011165095    2.16777639272499
H          -0.29234640520774    0.20926529440369    2.42216262500632
H           0.11305346917657    1.41357485774787    1.59907686879619
O           1.89489255515626    1.77794529504680   -1.96997409213717
H           1.99488722308350    2.07020444563382   -2.87676167035138
H           0.94295140065594    1.51161124330391   -1.87988122756088
N           1.37099768704430   -1.13632431075571    0.56370467022247
H           0.54630015956183   -1.39044974628523   -0.02509030247377
H           2.16675660334974   -0.80860134195895   -0.04851062162951
H           1.07451854767241   -0.33404646286160    1.22389541139543
H           1.65165106936807   -1.93831228575228    1.11823457952121
