    26
        -50.46843514  Gyration_radius:  2.46802093991 Dipole_moment: 1.035
 S           0.41383496612284   -0.40042807554810   -1.15688740086763
O          -1.01625107870542   -0.64255935060219   -1.17764022896036
O           0.97187130124785   -0.64148382443464    0.16971898583392
O           0.76683650983938    0.93513961073278   -1.63348649399928
O           1.04740739470442   -1.43790276371471   -2.13655438781738
H           1.96915604041675   -1.12598184610507   -2.23339812874454
H           0.21711548703671    1.98586715396336   -0.49133314972100
O          -0.16162492335784    2.57729710656160    0.20001210640772
H          -0.14285106702164    3.46330279114436   -0.16615944866753
O          -1.74452864242567   -2.78166346912448    0.28552759131849
H          -1.51088951958052   -2.05267337284187   -0.32355303065597
H          -1.93026454444329   -3.54094630849539   -0.26735628070415
O          -2.30770502455516    0.94281796703658    0.58003706672935
H          -2.09527218227656    0.42105197998510   -0.21582530068280
H          -1.69089243664166    1.69683246361453    0.55004387840470
O           0.95507411176314    1.12040747943120    2.38876770730710
H           1.38449820287002    0.54973398127306    1.74019316594465
H           0.58093707804362    1.83972075927149    1.86493090575355
O           3.16838593266924    0.12366078535816   -2.31211782674788
H           3.41308748487238    0.43487753816678   -3.18665415940509
H           2.41432662813980    0.67406762174394   -2.01980159199295
N          -0.95141983837601   -0.84343712419092    1.94840690898003
H          -1.61287058506839   -0.09637071791098    1.56874168039223
H          -0.12431574696469   -0.82718341943851    1.28187419193209
H          -0.62381929483299   -0.60899741407919    2.88250614944553
H          -1.38982624348761   -1.76514955180403    1.86000710050042
