    26
        -50.47513886  Gyration_radius:  2.42355433483 Dipole_moment: 3.742
 S           0.26338986154820   -1.59837902917597   -0.97198713792212
O          -0.89846949504932   -1.34171479225880   -0.14752428219343
O           1.47822833205028   -1.03461614080326   -0.39040257398425
O           0.09666483603883   -1.19603844402195   -2.35478552395508
O           0.46395480231990   -3.16425219774547   -0.99254393463274
H           1.03674742453364   -3.24864238840333   -1.74583355794746
H          -0.19652776893400    0.36890194220964   -2.48971406577520
O          -0.38158892830288    1.34455138191505   -2.49353406003526
H          -0.37668650732687    1.61049173342293   -3.41439683574430
O          -2.34878553566673    0.87147833025272   -0.62730260589606
H          -2.03921869671887   -0.04662333660503   -0.50255706973341
H          -1.84669489917080    1.19288615979858   -1.39503582453974
O           1.23331832649084    1.60424451114214   -0.28049068170703
H           1.44928299745382    0.64740472747464   -0.29962583177986
H           0.77700847118906    1.76098092408831   -1.12371394564065
O          -0.63939344929799   -0.73284091848357    2.46071186124395
H          -0.85863012011867   -1.14829679287382    1.60445363777111
H           0.30461311008904   -0.94811579172309    2.59877169920845
O           2.00177865700049   -1.18715875737965    2.20299284602263
H           2.71780154425240   -0.56442790166419    2.33841228844710
H           1.86058889501547   -1.22893002941838    1.23352232260527
N          -0.82263137085904    1.64017553669316    1.38291164963856
H          -1.58050097457491    1.46819420189335    0.66036223838614
H          -0.75482291521815    0.73907661713255    1.96103197449929
H           0.07524764126652    1.73985434542195    0.82873660327710
H          -1.01467425801349    2.45179610911219    1.95754081038786
