    26
        -50.47083024  Gyration_radius:  2.4517557593 Dipole_moment: 3.488
 S          -1.64477414053529   -1.11143448899136   -0.65484396572309
O          -1.27524286371112   -1.75872021008906    0.60167237207875
O          -0.84663187599072   -1.52448568877318   -1.77762887503515
O          -1.68638212075790    0.33962964793411   -0.48316646674474
O          -3.13019854450878   -1.56058248612956   -0.96228171186453
H          -3.62992956052872   -1.22363829351951   -0.22510794055883
H          -0.36243798904183    0.75631167304651   -1.37504147168511
O           0.49629381764814    0.90446584752515   -1.83101910185266
H           0.47993428042509    0.28606550652060   -2.56651989500284
O           1.22859111931070    2.93838239785676   -0.09752707820638
H           0.97829784776392    2.46846293888662   -0.90623669657229
H           2.06041866294808    2.55058929452121    0.18429333512739
O          -0.90168514094371    2.14722292858713    1.38830473497041
H          -1.40640436078630    1.69696146145592    0.68929542612853
H          -0.19980208972653    2.64377917005059    0.91890988385693
O           2.15124778435058   -0.17979193679553    0.03141891241556
H           2.05763999844985   -1.13438836889048   -0.17943243978551
H           1.67631075240027    0.27125730515947   -0.69748991897218
O           1.21215153829067   -2.62646773883066   -0.50585890457747
H           0.51953361086554   -2.31678757274894   -1.12278371501106
H           0.71955271539995   -3.00898430229903    0.22441029202557
N           0.30973620041234   -0.11537881518662    1.90257790302565
H          -0.36198785175119   -0.81507761833512    1.48437576563421
H           0.56470016262857   -0.37006040433495    2.84993402628400
H           1.15729732195760   -0.09879521126627    1.25282359038531
H          -0.16622926458807    0.84146494534646    1.85692195971154
