    26
        -50.47071229  Gyration_radius:  2.41584498646 Dipole_moment: 4.177
 S           0.80381007874709   -0.46769953783466   -1.80174264974754
O           0.60761060808956   -1.68646700507347   -1.05454126408430
O           1.76354962343224    0.44752052001670   -1.20723765922681
O          -0.46389849209955    0.20355971474263   -2.09783338441431
O           1.41278539112542   -0.89541703235890   -3.19916908828620
H           1.69050346114346   -0.06217844837325   -3.56397596918061
H          -1.63782385330530   -0.74321225002408   -1.43570002789945
O          -2.11166287393093   -1.42240546356301   -0.90179024231466
H          -1.54327583746282   -2.19593078777590   -0.98976821306474
O          -0.60940248572906    1.89964582280037    1.55336431139578
H          -0.40528356035262    2.16229101986077    0.60772030959856
H          -0.92242926414214    2.69398665347605    1.98731834167802
O           0.04691459270689    2.46773922268746   -0.89506309954652
H          -0.39560794812703    1.77990117498180   -1.43198983982064
H           0.96769179137530    2.16480965891921   -0.91591588541307
O           0.80328103176928   -1.87790726113102    1.59518809212268
H           1.38723831952394   -1.09578021824911    1.73994450437606
H           0.84674639131883   -2.02116406768661    0.62807772847448
O           1.91523888012774    0.51648941275021    1.48780797641670
H           1.17486142941670    1.11027585028537    1.67018335821683
H           2.00780877821869    0.49426544903657    0.51591569749436
N          -1.49266950079063   -0.68621859395393    1.56044538673766
H          -1.26883163291071    0.32685251928229    1.59739123868791
H          -0.55809074023952   -1.23728918314614    1.68104062417328
H          -2.16424372291321   -0.93471569419287    2.27798373740122
H          -1.85482047497484   -0.94095147545194    0.59234604623597
