    26
        -50.47200588  Gyration_radius:  2.47326174914 Dipole_moment: 3.507
 S          -0.05320979101671   -1.18444251483121    0.99380850944342
O           0.46950429244829    0.15644048123812    1.26192349934042
O           0.59873444208134   -1.79821122339252   -0.13242144504423
O          -1.51331073002612   -1.12889118813126    0.83982950450587
O           0.24564571531603   -2.05735027002038    2.25229268156002
H          -0.34409774613494   -1.66602029878566    2.92500987546237
H          -1.88864066505713   -0.45616037045980   -0.57021909567307
O          -2.07997337857574    0.02742855285191   -1.41501506920463
H          -2.99195389416834   -0.17199882390498   -1.63247831666129
O          -1.82549970556262   -0.89510783324981    3.42307455087088
H          -1.92525947086564   -0.82603556240012    2.45082009883166
H          -2.51515367059764   -1.48998498058118    3.72616070283225
O           0.29951992351451   -0.78705888435546   -2.54525814575045
H          -0.62632900527484   -0.52416105979168   -2.40554686262888
H           0.51025030629765   -1.32000848797670   -1.74623273758302
O          -0.53628737191996    2.04071201030576   -0.31930036372802
H          -0.23020890113648    1.45035442832953    0.40442357257186
H          -1.25621002802048    1.54923787505930   -0.74646170215980
O           2.87808780429195    0.64494078988747    0.36999583208880
H           3.24621810381297    1.23721679077216    1.02814383248657
H           2.01891280842118    0.33205245651320    0.74465121443687
N           1.52725317536959    1.39653278553918   -1.80737085866579
H           0.71244405103544    1.84202690927673   -1.28323039935079
H           2.22742489547524    1.12623022654550   -1.07519460828424
H           1.12551000233594    0.49497642129193   -2.23137254097830
H           1.92662883794807    2.00728178027715   -2.51003172871487
