    26
        -50.46571017  Gyration_radius:  2.49248072253 Dipole_moment: 6.363
 S          -1.21850751284027   -1.83147283542791    0.31676123533361
O          -1.26671178597038   -1.81215847264237    1.75756593516381
O           0.11428427880206   -1.90515883337186   -0.24822644751758
O          -1.98155087619935   -0.72876214533326   -0.28353012056379
O          -1.97492187846672   -3.15774375055008   -0.11776175974521
H          -2.30467607072300   -3.46048577132616    0.72134456594213
H          -1.66525145131609    0.71480175927828    0.26460647605811
O          -1.40655008694754    1.64229523324934    0.52900655233512
H          -2.22420571904788    2.08906869312310    0.75336822918526
O          -0.46754380159423   -0.56167801025706   -2.41546476242423
H          -1.28696908586901   -0.57825440642617   -1.88195042435665
H           0.07078882833661   -1.21657795530359   -1.93461085366614
O           0.19704570722931    0.32397628336837    2.46423043628366
H          -0.28616286177752    0.97860391681716    1.94362014396191
H          -0.32969255316086   -0.49473322473136    2.39233165803796
O           2.19145881299661   -0.71623797931430    0.99036388046055
H           1.63159532290255   -0.32131811800788    1.69177358496914
H           1.57640232299204   -1.29180641563099    0.50175547540840
O           2.78677574429352    1.35854171801993   -0.41053290290100
H           2.64076332344491    0.49052574118587    0.08391489217445
H           3.11128728510704    1.97238710268660    0.25019018857244
N           0.42004684129640    1.72421507877614   -1.48231722992339
H           0.12905995119296    0.80298195664403   -1.95517854659201
H           0.39843917756622    2.48724382198796   -2.14999589907885
H          -0.25570952591878    1.88245097543251   -0.70886243206089
H           1.40050559366195    1.60929564775718   -1.07240186506390
