    26
        -50.46886255  Gyration_radius:  2.50856111121 Dipole_moment: 1.104
 S          -1.52703900902790   -1.51282074618474    0.55785810635905
O          -2.48407288841227   -0.92189448545549   -0.33403826364673
O          -1.33435387887419   -0.75828092878745    1.79505808315884
O          -0.23685168080222   -1.77632560528276   -0.08411576568666
O          -2.09388917653129   -2.92418328600652    0.99090876881840
H          -1.46051799113628   -3.23163197089212    1.63214026504265
H           0.15614080212359   -1.03151622966910   -1.45908769307026
O           0.38455507686011   -0.54014450560239   -2.28845387805862
H           0.42383292253061   -1.20092622523560   -2.98146070469017
O          -1.55248992669753    1.25066182145563   -1.53213047236350
H          -2.11549341793248    0.51538396355592   -1.21308296267259
H          -0.85033080963332    0.80219817522876   -2.03113789233681
O           2.45942866586736    1.08533083702758   -1.59527890981526
H           1.77244883116073    0.44659184403130   -1.86596733357808
H           2.38399601240972    1.83601271841635   -2.18579462124288
O           1.94752370514197    1.41605895711412    1.03867474033503
H           1.97344250107898    0.50929566858328    1.41685783558725
H           2.27752363933242    1.32584458993868    0.12185473418112
O           1.40585171981027   -1.07257467213075    1.89574875636515
H           0.65194350464393   -0.90149983355751    2.47110632991648
H           0.99661961507558   -1.41959327816023    1.08065638238918
N          -0.64214018212188    1.64236463844018    0.92039849006674
H          -0.97352557404870    1.63594630400273   -0.08793783514051
H          -0.97741319765415    0.74424700974464    1.35384537411298
H           0.43972355471640    1.64255156300501    0.96512904526091
H          -1.02491280788012    2.43890367642009    1.41824943071172
