    26
        -50.46537060  Gyration_radius:  2.50508471531 Dipole_moment: 5.424
 S           0.63487345676191   -0.87952048963812   -1.82314816742966
O           0.63945222950166    0.52167808830967   -1.46887896444345
O          -0.67990114667949   -1.35766850685078   -2.23134495415648
O           1.20652543921961   -1.73431746551162   -0.78875658960360
O           1.57373090719816   -1.02213797016379   -3.08847756626341
H           1.43546902166050   -1.91929918759341   -3.37647077385939
H           0.22555956127678   -1.76575167498638    0.47857230525434
O          -0.41545544003684   -1.74140556622330    1.23716776588867
H          -0.35036356968953   -2.59563510130143    1.66755386025700
O          -0.53195861448617    2.57314957269043    1.88418533471805
H           0.05838382867419    3.32286239679909    1.96941658090542
H          -0.00053881798251    1.77923991867370    2.14977439637173
O          -1.41989350755378    1.99072086240067   -0.53584000473173
H          -0.60872569304502    1.69546511184122   -0.98827470365793
H          -1.13406525920985    2.29429667131344    0.36237392008382
O           2.64240846691608    0.32992047303720    0.29473001636107
H           2.03229545424159    0.68996092547016   -0.37052810232949
H           2.61119789093322   -0.61925626963917    0.12454152324332
O           0.94089791739271    0.44255283136439    2.39364390435860
H           0.41992182532738   -0.33407966833630    2.14497124288508
H           1.67218177659354    0.48298775573958    1.74051245039786
N          -2.22496427336282   -0.44076855321413   -0.34087902032583
H          -1.76684179864463   -0.87859248519040    0.47535744234641
H          -1.73490837957207   -0.84138427923734   -1.19189367989516
H          -3.22157039092989   -0.62699680661227   -0.35677073368761
H          -2.00371086450468    0.63397939690707   -0.36153747274414
