    26
        -50.46980429  Gyration_radius:  2.40715536799 Dipole_moment: 3.181
 S          -0.87844480392809   -0.89589026376080    0.67897810320361
O           0.13864883652546   -1.67957675671947   -0.00426844147890
O          -1.80021397525749   -0.27636046739908   -0.26674867107541
O          -0.24902901172098    0.09867722739398    1.54434534137187
O          -1.73072445990570   -1.84899988429760    1.56763864595706
H          -1.06914457364352   -2.19367336732250    2.20090281096520
H           0.26615739459379    1.47580846145610    0.73893055472279
O           0.42683609665199    2.20714858719959    0.10104491328137
H          -0.41894494800660    2.68804800364390    0.11236289128737
O           0.57880654570649   -2.10977488785585    2.81379234912340
H           0.53393953599899   -1.15672965491713    2.63055565877255
H           1.15654456527611   -2.48343404898259    2.14220732922224
O           1.54657054996031   -1.20682919194305   -2.30280538422060
H           2.28096260806289   -0.88883478202078   -1.75103634064168
H           1.01815558402889   -1.74030277530274   -1.68512122837545
O          -2.28244934368679    2.36652644702838    0.05906755325837
H          -2.23302007520737    1.39466329327815   -0.02737864342335
H          -2.85601565892718    2.53621769626458    0.80748554951264
O           2.43283908384022   -0.18329524020209    0.06423241115597
H           2.27545853819992    0.70702210388622    0.38667057534600
H           1.61853274403784   -0.68744018029674    0.23264205667894
N          -0.14897685097448    0.78772866769260   -2.04316734105364
H          -0.49718954794339    1.28478638346829   -2.85625240590200
H           0.57577410687266    0.04564614220277   -2.29774459645915
H           0.24158356304409    1.45847892299023   -1.31208633421557
H          -0.92665649359799    0.30038958451897   -1.53424734701946
