    26
        -50.46626028  Gyration_radius:  2.45331610158 Dipole_moment: 2.004
 S          -1.62525940403878    0.41137045339251   -1.23317660022233
O          -2.31191203642795   -0.43916763234101   -0.26532649055530
O          -0.24225472402040    0.03733860030928   -1.41710802253590
O          -1.80471169718101    1.82105189738061   -0.94121957933647
O          -2.33838036240251    0.14738750399300   -2.62695676310040
H          -3.22673592594588    0.45740316208442   -2.48060678519647
H          -0.28737251098214    2.27989691389061   -0.51940523718801
O           0.67625033275908    2.36475090868324   -0.32684378683542
H           1.09685840860785    2.09540818982759   -1.14739760224174
O          -0.59554911278261   -1.70998181833144    1.22482136798311
H          -1.25329326147842   -1.33113015787054    0.59089862510873
H          -1.05836771954274   -1.75837576391411    2.06421234051630
O          -1.39064072517896    1.10643770249342    1.78887468934317
H          -1.87773844290262    0.60906670593157    1.11389811241481
H          -1.50626003417313    2.02675923121241    1.54439814052271
O           3.17136124375439   -1.04716305636943   -0.00274733541981
H           3.64255626439823   -0.65200582285636   -0.73733574153009
H           2.46979025954013   -1.62566470467775   -0.41066847605936
O           1.06580766478486   -2.25425177740172   -0.99775262277256
H           0.59055169444942   -1.45692318085490   -1.30860897747724
H           0.55790846228834   -2.55035094648182   -0.23388485271582
N           1.25982791407854    0.29796092305028    1.27918212676629
H           0.96675561122211    1.11870618002403    0.67583846699080
H           0.48957793662629   -0.41484830593664    1.27420782291587
H           2.11662355774438   -0.15181534525187    0.86321202667639
H           1.41460660681765    0.61814014001645    2.22949515394170
