    26
        -50.46344361  Gyration_radius:  2.44927114783 Dipole_moment: 7.375
 S          -0.76038369142357   -1.65096049642624   -0.66783162149547
O          -1.92601610126677   -1.02073750752209   -0.10932709434291
O           0.26402437744334   -1.91459393308459    0.34254046681359
O          -0.18885255488680   -0.94202871371360   -1.80566863873716
O          -1.20038582156090   -3.05675798114596   -1.24364717461297
H          -0.54287469384244   -3.16248462631037   -1.92137037776539
H           0.18406220413126    0.58037623204792   -1.79563894454907
O           0.44287828370739    1.54540137559134   -1.75657605430813
H           0.79305731686399    1.75406384592563   -2.62389120343946
O          -2.37975016130740    0.85274804180709    1.95132764402755
H          -2.39434136204188    1.44761012786387    1.17976168475020
H          -2.65174255591242    0.00274915231041    1.58385894432011
O          -2.17269478157032    1.64342135579365   -0.65425460891366
H          -1.34788545478841    1.87905400287094   -1.09422895971815
H          -2.19486545855888    0.67064637773331   -0.64821273742735
O           0.13558073801632    0.08288193250434    2.12479766722601
H           0.08417802263938   -0.74649449058595    1.60922459066260
H          -0.79370389535607    0.42984265901097    2.16782589014500
O           2.74155350743132   -1.18920484237266   -0.01729640686577
H           3.21256733572978   -1.70232738429605    0.64202879985377
H           1.80740255855466   -1.51865842359516    0.01447796493557
N           1.79740612439959    1.23811411235596    0.54542482409735
H           1.30219342918116    1.52411446132075   -0.32746255578326
H           1.05882205317081    0.87810882412891    1.26952610839268
H           2.36633081265413    0.38536472760344    0.31331634242788
H           2.36343975859525    1.98975116018477    0.92129544031319
