    26
        -50.47501779  Gyration_radius:  2.45472249358 Dipole_moment: 5.106
 S          -0.96374334223466   -0.89718882580729   -0.88265190265159
O          -0.35177144511858    0.16494357183674   -1.66738925068958
O          -1.43090488978609   -0.41192838665224    0.40739055593734
O          -0.05886725847035   -2.03404331313509   -0.74088743688163
O          -2.23732534018432   -1.38902977961709   -1.64374294320782
H          -1.86082990871164   -1.68665739672943   -2.49346658038438
H           1.22234651487713   -1.66398034900855    0.13668707034592
O           2.00397707623982   -1.36368360273528    0.67235050672822
H           2.62931342200897   -2.09006665760556    0.65548461315705
O          -1.99771023107592    2.13539468851387    0.67354757681892
H          -2.80268547922360    2.14964501477622    1.19427928388748
H          -1.85234516896136    1.19003781459092    0.43318641704797
O           1.78702306951952    1.13814638380374   -0.47745843380831
H           2.11322790818195    0.30082080105765   -0.10655871001706
H           1.01700500819469    0.87730526967995   -1.03341147403709
O           0.23400800263067   -0.33377851810653    2.50028419562550
H          -0.50172258761084   -0.49408460941988    1.87429700670153
H           0.98990674995249   -0.79080989060756    2.09360001886105
O          -0.35996385919654   -1.88197766558078   -3.43906960113575
H          -0.14518687309405   -0.95026040675612   -3.29019900550950
H           0.04120002696090   -2.34603073250032   -2.69144772892044
N           0.51472527509251    2.11111674406642    1.58613880601064
H          -0.45632404420032    2.33451259216791    1.26338537637834
H           1.09464761494629    1.86028493841073    0.71841483464377
H           0.92558792984646    2.86933009602385    2.11779485997760
H           0.44641182941688    1.20198221933175    2.13944196512156
