    26
        -50.46809032  Gyration_radius:  2.48800078464 Dipole_moment: 3.377
 S          -0.99330320898221   -1.00236304758630    0.80617265395524
O          -1.82724674067331   -0.07039098659065    1.53642207366459
O           0.39224706655225   -0.98131192185626    1.24825649677552
O          -1.07478397724271   -0.76163110037895   -0.64342975809545
O          -1.50328273344805   -2.45881157555678    1.04861363873830
H          -2.44269914904934   -2.39068239968797    0.79005614424575
H           0.29319123850543   -0.47842159135900   -1.47918917744785
O           1.09672273387443   -0.23476394021771   -2.00448413155641
H           0.91595170291410   -0.51408323582329   -2.90330460611138
O          -3.74910171141434   -1.33722551570860    0.22264681991286
H          -3.33543747224073   -0.67864772431042    0.81038204157039
H          -3.48003653582178   -1.09417837447523   -0.66783190085815
O           1.12869987762542    2.30013744787173   -0.90558669284444
H           1.22301563712111    1.54943941342622   -1.51809236632510
H           0.16102503416032    2.35347988788289   -0.73267449525811
O          -1.44424698623180    1.86674761699401   -0.37290635362642
H          -1.39398434289048    0.93272058012297   -0.65100986091350
H          -1.74954459314017    1.80782053597258    0.53896168720329
O           2.86339285386034   -1.17635882493607   -0.10978417004567
H           2.43667351389843   -0.93271990988061   -0.94929263276787
H           2.14894758497431   -1.56576554933072    0.41500489810089
N           2.08543817117325    1.00750304765187    1.13515231578156
H           1.74065582537493    1.67286095707648    0.35935171380446
H           2.74700085475669    0.31704203009920    0.69622476769443
H           2.47964243639667    1.48895746663169    1.93462302380007
H           1.28106291991692    0.38064672395037    1.39571787062203
