    26
        -50.46166798  Gyration_radius:  2.63277324927 Dipole_moment: 3.321
 S           1.88059435246941   -1.61817692732867   -0.84665371680114
O           0.47256125938266   -1.71862832992511   -1.18977166549706
O           2.10389677481492   -1.55338466703377    0.59157723507113
O           2.55176553755236   -0.53606427142710   -1.54691302033822
O           2.54658983188150   -2.96911214207847   -1.34075111357304
H           3.44526502302648   -2.88035138169786   -1.03892910659021
H           1.83992910329642    0.83008055258322   -1.17907122261984
O           1.33831648238698    1.62708187472687   -0.85394097507626
H           1.99489309871863    2.30906671283534   -0.70486662144828
O          -0.97767271797871    0.48477934043126   -1.79727595957180
H          -0.51051316105189   -0.36968437485637   -1.72212725725954
H          -0.26973468646366    1.13987598754462   -1.83181851240224
O          -1.35746360199730    1.68493843266403    2.73682745795132
H          -1.99502188249503    1.37559840395433    3.38131390429255
H          -1.81598630747111    1.67307609485003    1.87353888765880
O          -2.46615124437906    1.41252831327242    0.23527138925022
H          -2.98073776875018    2.13335984997936   -0.12871318091664
H          -1.94049675051398    1.05257863096382   -0.51630721905276
O          -1.65049069424444   -1.61164645243257    0.40305758475500
H          -0.95315933831598   -1.93012817415500   -0.20377651205826
H          -2.33645098206216   -1.22498635667383   -0.14736442602510
N           0.22223124636430    0.14916312103326    1.18614733134709
H           0.45065386207179    0.83810366125476    0.44509254104462
H           1.03016276989805   -0.52245638241746    1.21747986424415
H          -0.00331349524134    0.65007381475510    2.05878535839236
H          -0.61966670088220   -0.42568532082071    0.91918894522910
