    26
        -50.45913622  Gyration_radius:  2.62060501132 Dipole_moment: 2.364
 S          -2.40424600395065   -0.63118072738495    0.37827340107518
O          -1.86210356191214    0.07427916245096   -0.77842521562566
O          -1.91198203700664   -0.05294366252987    1.61679499138470
O          -2.23421547604298   -2.06630111116125    0.28222799502418
O          -3.97788306875112   -0.39103565217025    0.35617453067078
H          -4.31496602013839   -1.26284696923940    0.17420255568245
H          -0.61245073120765   -2.11274541098231    0.06901938564428
O           0.36853683587980   -2.03531771892053    0.13110907351162
H           0.61459173536739   -2.57271934717007    0.88741707153611
O           0.48731434218331    0.45662503069873   -2.18130992178410
H           0.34562088661417    1.40444866249357   -2.24488619603413
H          -0.34830203496543    0.09584942763477   -1.84325590577305
O          -0.83440113443331    2.46877467811690   -0.54074782039216
H          -1.36845640632635    1.65268268647585   -0.69212891765332
H          -1.38830534593592    3.05785374826526   -0.02737784530528
O           3.14314565654436    0.50430833197928    1.37633135227258
H           3.94069387223550    1.03293428629593    1.35596264059406
H           3.10117227211691    0.03083011174528    0.51355569420945
O           2.63751253701381   -0.71244439383546   -0.97047023694332
H           2.01545049013157   -0.21698807532082   -1.53565541902239
H           2.17431465240954   -1.53640266830486   -0.78495191556017
N           0.50456849288119    0.58066342332747    0.90974811136815
H           0.29567645260572    1.37891826523795    0.27965384813224
H           0.61185820386588   -0.29969637387769    0.36244385603297
H           1.38414234499485    0.73210176830711    1.43130613307001
H          -0.36728697418150    0.42035252787465    1.47498876389294
