    26
        -50.46854389  Gyration_radius:  2.52520041094 Dipole_moment: 1.459
 S          -0.84468996643498   -1.60146425788287    0.49132590752173
O          -0.65096107208309   -1.36958476681191   -0.92780513639810
O          -0.86089799625835   -0.34801057029988    1.23693957056705
O           0.07596814722766   -2.55957843313382    1.06475181639484
O          -2.29056864852702   -2.23195019670244    0.62897631496673
H          -2.28634786917632   -2.55399156745904    1.52392923256802
H           1.54735771059370   -1.88942489445183    1.02791927815497
O           2.42285092424454   -1.43309911874041    0.96064569215875
H           3.08173456971996   -2.09119348874838    1.18900528013473
O          -2.30932931681451    0.48656799224983   -1.82194325080501
H          -1.72633964181853   -0.21016205487954   -1.44965613591981
H          -2.53533340627337    0.18829962288333   -2.70456563775351
O          -1.36981822284106    2.96020053110784   -1.40100319368590
H          -2.05836842786139    3.42984006817186   -0.92800789523424
H          -1.75705528563906    2.08997514259638   -1.64833434006807
O           1.53561431053847    0.84910681476694    2.32574914667232
H           2.07430784731095    0.12783831203311    1.96629103800515
H           0.64988666766818    0.47235518805093    2.39928461620583
O           1.76645464578224   -0.30774607073871   -1.45650421872714
H           2.25241207505260   -0.70618968778330   -0.71401062071816
H           0.93948707121278   -0.82010128396889   -1.51163873813663
N           0.47539482363662    1.53917919527496   -0.06033381558031
H           1.06654728454029    0.98409686873227   -0.73823744452605
H          -0.07623104327677    2.27754664889892   -0.54543076318722
H          -0.18506340347386    0.84700731471192    0.37727310847319
H           1.06298824295646    1.87048269213059    0.71538020893215
