    26
        -50.46885403  Gyration_radius:  2.4205140084 Dipole_moment: 8.539
 S           1.02518124672324   -0.77717031047441   -0.60943672196488
O          -0.36408333540295   -1.24046297721189   -0.63229031040081
O           1.64918903647151   -1.04125903285717    0.67551670405817
O           1.09104219839639    0.64840224812447   -0.93554591145775
O           1.80891887989107   -1.55800089114950   -1.68981704890099
H           1.19342937257607   -1.53615660086478   -2.47116625653170
H           1.57429950928549    1.46359149332431    0.39038884735024
O           1.76426602200454    1.64597375986171    1.34437373487746
H           2.25663359775494    0.85901593952503    1.60621438188324
O          -0.78254500969891    1.19108815483279   -2.73409017593789
H          -1.54119109931832    1.28597164949132   -2.15122150479281
H          -0.01318435351034    1.13755375290830   -2.13247343024126
O          -0.20599531148246   -1.38831391028875   -3.31020825325388
H          -0.40969875792309   -0.43381567318187   -3.40010108414517
H          -0.66834586185367   -1.65484218117396   -2.50288783631107
O          -0.00266962727162   -1.41396631319486    2.65129364367553
H           0.57545597443514   -1.39365354167908    1.84556023610410
H           0.51590298995265   -1.84747396079976    3.33120091508597
O          -2.05134297126086    0.58085331504934   -0.00715502005467
H          -2.86978403754918    0.09806433917364    0.12579084010329
H          -1.38609921422841   -0.10895092596869   -0.29801997221311
N          -0.65113043722057    1.11757463887660    2.20302632777320
H          -1.26352253192909    1.03705335034101    1.34709482489346
H           0.31946002642014    1.46073034984359    1.89063177667421
H          -1.06153840504946    1.72785295651530    2.90110041640515
H          -0.50264790022044    0.14034038097437    2.56222083732586
