    26
        -50.47142877  Gyration_radius:  2.45683354049 Dipole_moment: 3.751
 S           0.85601998243865   -0.24588399654037    1.42186941470007
O          -0.28820917009504    0.65099534169842    1.20090463261397
O           2.11423534098642    0.43955985866650    1.29183477317380
O           0.76059693190289   -1.38746555317421    0.50337038175575
O           0.73358559431884   -0.80704495380416    2.86787210533132
H          -0.19613151601182   -1.11949145644828    2.91743239797690
H           1.68759761616456   -0.90410610794055   -0.83358767643656
O           2.05724624719355   -0.33515156152483   -1.54082722444349
H           2.76838906614443    0.15447347576297   -1.11727001125109
O          -2.31333955347843   -0.04181004331578   -2.01724692158311
H          -3.15157166367422    0.27749783754449   -1.67942887642600
H          -2.07520213956223   -0.81687424201270   -1.46049518320518
O          -1.57778486197324   -2.05712180073675   -0.37651755508113
H          -1.46201705791780   -2.90540059066383   -0.80852233051551
H          -0.67381449193907   -1.79728663562810   -0.05557023650614
O           1.95344687089427    2.67029095309351   -0.20657221293297
H           2.47457977601863    3.35458418360535    0.21528288239767
H           2.02056098992180    1.89388975518709    0.38385883366267
O          -1.83636107139304   -1.18348753570024    2.33616226622182
H          -1.99900146123489   -1.75263700940630    1.57215147299746
H          -1.60077407170563   -0.31992102474315    1.95654205993141
N          -0.06447606778337    1.26493013391441   -1.34221259897060
H          -0.92944177159357    0.92315411421317   -1.81369987980810
H          -0.19213665571486    1.12658993008024   -0.30018088041469
H           0.77233944332726    0.67529376026910   -1.60548191060954
H           0.16166369475494    2.24242313761656   -1.50966769260460
