    26
        -50.46798292  Gyration_radius:  2.54914696263 Dipole_moment: 6.424
 S           0.95710904337616   -0.55836910092642    0.01194795502012
O           0.83901029430640    0.86477132781027    0.35571916244522
O           2.31108295080662   -1.03852548378557    0.04493316702862
O           0.40518274658549   -0.68662020480009   -1.45559031868234
O           0.03724142085208   -1.35637116530083    0.82010980287121
H          -1.46330310058810   -1.84307279074468    0.38467527707154
H           0.97230120800850   -0.01156892375075   -1.92363251981248
O          -2.43436686718195   -2.02672514108029    0.34049836942821
H          -2.55488428633542   -2.87105523715545    0.77792819173626
O          -1.41305152474610    1.45008136920154   -0.79957475509574
H          -0.53414919103027    1.34357288827970   -0.35310792085036
H          -1.37270465727059    0.85428615610598   -1.55343136233879
O          -0.59779577963062    0.38848859034102    2.66446684846479
H          -0.30841894166414   -0.40097294815408    2.15184157620111
H          -0.01767266293018    1.08060993793452    2.32447765260161
O           1.93376506852395    1.25857005126614   -2.12963026944527
H           1.74690975138723    1.60311584246724   -1.24523827427546
H           2.85320401349616    0.91626720341808   -2.07875078233611
O           4.19039649651575   -0.01819550199722   -1.49351564181385
H           4.56118927233125   -0.75574703610621   -1.98067583735237
H           3.60128937789128   -0.41519749924763   -0.81350497292800
N          -2.78304868278192    0.45638539753480    1.20520886321833
H          -2.87399732201660   -0.55392466793650    0.93129723791816
H          -2.38258374068242    0.95377011351728    0.35329155690821
H          -3.65846830033421    0.85973853638339    1.51756371068536
H          -2.01423658689690    0.50668828673774    1.94269330332166
