    26
        -50.46702078  Gyration_radius:  2.48330392068 Dipole_moment: 2.931
 S           0.11775265497017   -1.54941204121224   -1.12336992728889
O          -1.25222102818423   -1.50562278142624   -0.66466422306216
O           1.04805401905569   -1.20913565635282   -0.04072538735289
O           0.40339132343549   -0.77363378314899   -2.31042477838272
O           0.41184701562780   -3.05877712380034   -1.50461150104223
H           1.11108441901738   -2.98773980600016   -2.14661129600461
H          -0.95897746104122    0.35538952199036   -2.43005774008853
O          -1.77307841240858    0.74664977710764   -2.06752438008495
H          -2.15242163818938    0.01291187706623   -1.56802467544728
O           2.27778797150050    1.39865807927211    2.07928778288181
H           3.01909321151889    0.80397121924423    2.20396369733806
H           2.23917471466782    1.57917463167390    1.12971393167126
O          -0.66342524300467    2.19461418554431   -0.12543530660481
H          -1.19153709217566    1.80063545377920   -0.85858333506055
H           0.26017777744208    2.15542876508363   -0.42630476877714
O          -2.22061994715604   -1.41103864598633    1.83794094917105
H          -3.17151732413216   -1.52140551363334    1.80197287745639
H          -1.89361034165468   -1.56711701523868    0.92822019861584
O           1.85012395026333    1.21440896743993   -0.76646933870474
H           1.89242151112655    1.22652600199597   -1.72536938165686
H           1.63193314864497    0.28468365505465   -0.54242140944489
N          -0.21051646897731    0.36408796937785    1.69857367239724
H           0.27255730177073   -0.34308389543765    1.09235835770692
H          -0.53525480464364    1.14622372374026    1.04617198674301
H          -1.00798414187889   -0.10848332965207    2.14655086611752
H           0.49576486439722    0.75208577351519    2.33584312890053
