    26
        -50.46345225  Gyration_radius:  2.47296027226 Dipole_moment: 6.158
 S          -2.03027658153655    0.14933920865243   -0.13535040058635
O          -2.08673212568407   -0.01465704536772   -1.58163487658292
O          -1.66276718370466    1.49207011717295    0.25792938621875
O          -1.21001811990278   -0.87698786652067    0.49161785559334
O          -3.49628238603655   -0.10214869055179    0.40571481071503
H          -3.99482717749730    0.61628878537514    0.02915813599625
H          -0.14387466600777   -1.74530532362560   -0.33905752328199
O           0.56587125662284   -2.19610622820800   -0.86503393603023
H           0.24702400533804   -3.08254483087694   -1.04087746655108
O           0.79298808086352    2.04344235721387   -0.68538368318903
H          -0.11268504051787    2.03523410719426   -0.31648913009074
H           1.38605635820669    1.78171024540269    0.07552822025563
O          -0.32671837240620    0.62523509614293    2.54367877451664
H          -0.81932639042721    1.41515594815863    2.30082992673542
H          -0.63211301604914   -0.04365825387377    1.90641525409906
O           2.08734006539417    1.14517865762001    1.39315733953312
H           1.31264350104803    1.05180632450948    1.98280596042008
H           2.41122146620421    0.23521130269600    1.27241372993728
O           2.28520313562266   -1.58794343231455    1.24497287949045
H           1.68498658986561   -1.70181482937884    1.98572882073943
H           1.79837121119334   -1.86841985518697    0.45433425557200
N           0.41170237355333    0.11421991286111   -2.30992517904087
H           0.71188342720833    0.95769111707946   -1.65898238554550
H          -0.63971577226068    0.06681903722758   -2.18811609986790
H           0.67552459279663    0.26635764218763   -3.27694226885196
H           0.78452077811347   -0.77617351359043   -1.94649242021052
