    26
        -50.46860779  Gyration_radius:  2.53193740832 Dipole_moment: 1.472
 S          -1.28587890932604   -1.54105154772675   -0.31612928815726
O          -0.84273156313899   -0.98240497800873    0.96063456670033
O          -0.22159799298814   -2.20075397358996   -1.02805728451495
O          -1.97315654058832   -0.53353851284148   -1.11407157175164
O          -2.36227876452609   -2.64459572413324    0.03366070656146
H          -3.06833606000835   -2.15121267382712    0.44051482505236
H          -0.65548960175976    0.04334926741071   -1.99071446050016
O           0.21497660457804    0.36587755536052   -2.30803244558186
H           0.57929483500735   -0.36431287166810   -2.81385284580736
O          -1.67015040899274    2.04486311087879   -0.39285944309563
H          -1.17193026776096    2.35599622792517   -1.15145775811762
H          -1.93155164187859    1.13110774344167   -0.61227284841633
O          -0.86060554669391    1.53327754419881    2.16014717568508
H          -0.92387085527195    0.57697883778819    2.02425845123054
H          -1.24588169060592    1.91254177788720    1.34917507687653
O           1.66444080637641    2.21419950200315    1.80339517461491
H           0.74103452511884    2.00693055849816    2.10412150453152
H           1.67465948237649    3.15081483910298    1.60289140662940
O           2.40178938184994   -2.25241520629505   -0.50951572876436
H           1.46409215013029   -2.35060899996319   -0.77697591165052
H           2.61941299247485   -3.04080363642737   -0.01090298637081
N           1.39655628901920    0.16328077721395    0.11281642128799
H           2.10980578945250   -0.58006026794187    0.02053362477962
H           1.08502521203939    0.43716506145687   -0.84547981725727
H           0.55979622633671   -0.27683445899795    0.56950935262901
H           1.70257552874215    0.98221004829691    0.68866410341799
