    26
        -50.47252510  Gyration_radius:  2.42169207253 Dipole_moment: 3.404
 S          -1.21315536874264   -1.25417673209784    0.48907021060764
O          -1.04352578044592   -0.06840503003394    1.30313643778598
O          -0.00418610343516   -2.04596869287213    0.36361158898147
O          -1.78206762031755   -0.94758970393301   -0.81941903219321
O          -2.26386004812744   -2.15841898294262    1.24342044562562
H          -2.15988953537646   -2.98416426027919    0.78444123381748
H          -0.45179036211844   -1.01744466546295   -1.80006300243167
O           0.44228500123486   -1.06840980729388   -2.20631807620649
H           0.83198981932595   -1.84562615771838   -1.79395286853197
O          -2.08799175272872    1.51254937101856   -1.83963093863620
H          -2.12032094315161    0.62217700751644   -1.43695317978701
H          -2.01478723334690    1.37110911494452   -2.78466518890624
O          -0.34099369109093    2.20178962247259    0.08922215995813
H          -0.99677535406114    2.23872620252122   -0.63292488866720
H          -0.66503552371016    1.47157914137674    0.65468075867281
O           0.88442556998447    0.49008213426613    3.06783845593069
H           0.09097598037391    0.22666263599917    2.56192931831490
H           0.83399887712688    1.44372415730753    3.15598456537483
O           2.21952058039451   -0.75785576677354    1.08899618293336
H           1.48126856102553   -1.36724681687849    0.87873640088358
H           1.94822461016922   -0.33197672043755    1.92736391133768
N           1.70439079269576    0.87585919363974   -0.87622398222906
H           1.26175182724056    0.20095835273084   -1.55149905206976
H           2.04393606975562    0.27449024930724   -0.05113314285271
H           2.46381109772614    1.39156527235499   -1.30533433238267
H           0.93780050959491    1.52601091127348   -0.51031398510839
