    26
        -50.46642375  Gyration_radius:  2.51833520069 Dipole_moment: 5.585
 S          -0.89995923207590   -1.25446341725560   -1.21426514371345
O          -1.09379233609387   -0.97764363030844    0.20458005620154
O          -0.19818391495013   -2.46925970677567   -1.48675377120422
O          -0.28933026420414   -0.07639962783516   -1.86069716988696
O          -2.35148926058417   -1.36407198638407   -1.83110581256257
H          -2.79877888747138   -0.58094131928568   -1.50329845885890
H           1.24492165034363    0.29233194099156   -1.48422716504780
O           2.12352735507233    0.52389338253460   -1.09413882588396
H           2.66606355938912    0.84622911166675   -1.81480760667763
O          -2.20170250548737    1.49565784059852   -1.14540958146621
H          -1.41940632619800    0.96017715321078   -1.42918865485410
H          -2.35547619851851    2.13371198512467   -1.84568415195752
O          -1.36516971103236    2.57839505059133    1.22368024417943
H          -2.07810497421989    2.45904593185101    1.85293620674319
H          -1.69748549677861    2.22261399998583    0.37300519522353
O           1.61918474446784   -1.22533910788229    2.71037496413909
H           0.94977937075490   -1.79919717493711    3.08668737539818
H           1.84093019413463   -1.62330226584411    1.83718307766197
O           1.92694125521494   -2.00799978980691    0.16044475717572
H           2.26036307928118   -1.23238048755174   -0.31076985253656
H           1.18622939773408   -2.34258748257154   -0.37440479838568
N           0.60344500310629    0.71975421148166    1.20785975741890
H           1.31875053850563    0.91007551762330    0.49504390726186
H          -0.09037336873323    0.02617580232639    0.78949116126302
H           1.03762877265174    0.21487592523416    2.01217223310164
H           0.06148755561379    1.57064817322583    1.44129204729988
