    26
        -50.46097694  Gyration_radius:  2.60962056213 Dipole_moment: 2.991
 S          -2.10651671333294   -0.97360431521238    0.79971570034518
O          -2.03887441761809    0.28884014474985    1.49008234563321
O          -1.10394225155376   -1.92200555358194    1.27371057009237
O          -2.06005932611957   -0.84580716874510   -0.65500879066204
O          -3.51758022947222   -1.61636665672613    1.14119662668775
H          -3.43965268492158   -2.51573299230600    0.83626101345177
H          -0.57067144080497   -0.97827235074374   -1.28115047006973
O           0.32019712259177   -0.89675564464591   -1.70922853054255
H           0.19747977883060   -1.18335819931230   -2.61551241742241
O           0.40967623830983    1.53056835733606   -0.43766239949945
H           0.42525663190552    0.77374662172802   -1.05068712843051
H          -0.51803651580021    1.87107375069896   -0.48913272571496
O          -2.19908504386720    1.90141629690268   -0.58436794425810
H          -2.30086577067202    1.58655941431066    0.33353798965823
H          -2.37957242742257    1.10184552010447   -1.09614132378301
O           3.14023960325230    1.60633740856946   -0.52335113434524
H           2.19053415979845    1.80823131294917   -0.45941378665258
H           3.50094442706571    2.18423810902935   -1.19648828351252
O           2.67836783949057   -1.07116707101960   -0.17551551748014
H           3.06798136323193   -0.19928405355835   -0.37026172566420
H           1.97810686925107   -1.20575111752197   -0.83377618511991
N           0.87262168553868   -0.24210049395709    1.54989852792867
H           1.70567822659461   -0.66448459949526    1.03809558714423
H           0.08467765188108   -0.95456380191599    1.53740627115069
H           1.09210332052184    0.03318088944017    2.50067242193341
H           0.57099191326808    0.58321619288343    0.97712131911991
