    26
        -50.46912695  Gyration_radius:  2.40916190672 Dipole_moment: 4.679
 S          -0.87143524548125   -0.48728582659153   -0.91819492095767
O          -1.92673403674384   -0.64728013823719    0.05879820353978
O          -0.28584650205544   -1.74199654993721   -1.35537038603986
O           0.19247370190850    0.40717142398936   -0.41766473083239
O          -1.45621986212226    0.21044949178909   -2.17998208153243
H          -2.08071048871634    0.88047304341658   -1.79691986320697
H           1.57070403131792    0.21817023822198   -1.35906125435598
O           2.37153513505986   -0.08957723214012   -1.83909488448005
H           2.07946116908960   -0.26650298848233   -2.73505721628857
O          -0.85686043060381    2.38924624368329    0.93483241005125
H          -0.42630381997776    1.65080839519342    0.44189887049012
H          -0.32408192908082    3.17016743096531    0.77746526805670
O          -2.96723525254838    1.69705474029805   -0.67577456950920
H          -2.36415398420276    2.18949581383367   -0.08872592631745
H          -3.10560915077847    0.85341797868532   -0.21945054224650
O           1.65776794699467   -0.41931122246545    1.89633170561885
H           0.72608866025060   -0.42487907755342    2.24048633509087
H           1.68176000051797    0.34793542864610    1.31496262887918
O          -0.89982933615095   -0.13189602912602    2.45311088868120
H          -1.02210279959450    0.82439623875031    2.44150650389895
H          -1.34353326645259   -0.44580703764209    1.63896400097921
N           1.95296916810905   -2.07566754339619   -0.10941125620219
H           0.98627056859971   -2.10957221837748   -0.56042184853932
H           1.85880460279551   -1.52857861677355    0.80746743549115
H           2.36009491852616   -2.99521006618780    0.01773318546182
H           2.49272620134562   -1.47522190056983   -0.76842795571583
