    26
        -50.47051035  Gyration_radius:  2.45051761428 Dipole_moment: 5.704
 S           0.68531930722131    0.50156151586095    0.56685552360829
O           1.17375043031306   -0.62231998121368    1.35165955066474
O          -0.40598771609959    1.20974558738425    1.23907172730815
O           0.26071224291999    0.06534228596210   -0.76003897117069
O           1.82403875399523    1.53621171620373    0.39517952458746
H           2.66314709943736    0.98927662540106    0.32281627956728
H          -1.24684728510287    0.20575571676374   -1.69432660482290
O          -2.17355656544472    0.50614390267734   -1.76113773426727
H          -2.09715997345092    1.46736000717812   -1.59742856132750
O          -1.26036357053198    2.83387942344539   -0.72242115455081
H          -0.92440608228486    2.35714966693258    0.06063722776988
H          -0.48939879674756    3.22113490189844   -1.14029068623415
O          -0.83196574015616   -2.31309915959446    1.22427920906755
H          -0.77286629336031   -2.84086297743388    2.02306839798216
H          -0.03831757819907   -1.72660592511856    1.23230195121628
O           3.64000490516161   -0.26918784051191    0.31282264457931
H           3.40946329188038   -0.68824761829570   -0.54264570757800
H           3.07144670888066   -0.70663259545393    0.96379154515301
O           2.27276584114791   -1.35959100631480   -1.72891270632916
H           1.49707747050250   -0.81717350882201   -1.47359120556034
H           1.98092815706970   -2.27203540486818   -1.68872875576045
N          -2.48857888997019   -0.26828269041580    0.69816064636887
H          -2.06124044519737   -1.20983374559530    0.84209891502307
H          -2.54337561350321   -0.03878908913827   -0.35600947301873
H          -3.38137016011037   -0.17120525124091    1.16910921378116
H          -1.76321951836933    0.41030544431201    1.06367918394189
