    26
        -50.46743200  Gyration_radius:  2.52215203565 Dipole_moment: 4.958
 S           0.10455012311440   -0.49453503630086    2.10989097604022
O          -0.27495144663094   -1.71743270161755    1.41440634405507
O          -0.57992781686717    0.66042173087159    1.56227804373675
O           1.54641098801579   -0.32144585669521    2.17821090395577
O          -0.36334437281325   -0.65865567202472    3.61317622016922
H           0.45729567847530   -0.56710035067726    4.08563166088212
H           2.22558384906081   -0.01638139840165    0.76492921703848
O           2.56055977442363    0.14118736836846   -0.15779891327493
H           3.51378247419723    0.21317870388464   -0.08878651991307
O          -2.57699281171993   -0.53361877054420    0.27098802778520
H          -1.95853867864550    0.05096151090717    0.75131116327418
H          -2.40413811291465   -1.40584998068776    0.63634357475259
O          -1.47250408765949   -0.47950472135047   -2.15772956360216
H          -1.27419045704981    0.47159783692905   -2.33695988029065
H          -2.04896741973691   -0.48104100777160   -1.35782625798132
O          -0.85747204893683    2.09148476557369   -2.32673567134579
H          -0.23635090055518    2.21450229332497   -1.56810715778232
H          -1.59125022060421    2.68534294109487   -2.16271035430168
O           0.70752476351907    2.25141661575497   -0.18738320969852
H           0.19171456152746    1.80777276029644    0.51094558007072
H           1.49133364986272    1.69869010877862   -0.31119963720395
N           0.58915261522356   -1.53444539973777   -1.06237399006224
H          -0.25379506422110   -1.07315034491973   -1.61443237609778
H           0.86788491394313   -2.40710105313106   -1.49773213100932
H           1.39265290899788   -0.89017597199343   -0.99016805632660
H           0.24397714799254   -1.70611834994040   -0.07816801285850
