    26
        -50.46572137  Gyration_radius:  2.46753477019 Dipole_moment: 3.852
 S          -0.41095035582634    0.75498213684056   -1.95225389359919
O          -0.27427662283241    1.78678850428347   -0.92486874295177
O          -1.59499291141008   -0.04196557630494   -1.79159319030498
O           0.80935901093488   -0.04110212674400   -2.06387447792336
O          -0.54748832975897    1.52288939036122   -3.32935802312313
H           0.31843588766531    1.90033873601912   -3.44462821866283
H           0.35326618860948   -1.45781851345332   -1.33354502976150
O          -0.02222886821383   -2.17763519138885   -0.77956346091763
H          -0.94384956790341   -2.24310115819052   -1.04954730697564
O          -2.61337621418133   -1.07032029043715    0.50137913397783
H          -2.36471802409806   -0.72386620562742   -0.37321080940524
H          -2.96384888701583   -0.31069631358993    0.97110572479607
O           2.22780355620528    1.22140420865777   -0.22869695168153
H           2.05752370458421    0.58687484453666   -0.94755231432120
H           1.40915882516129    1.74471625169981   -0.24550135074744
O          -1.27339052147407    1.28616604176123    1.42565790255040
H          -0.90339623841872    1.98802675625243    1.96440202540471
H          -1.00773119203746    1.49381011879208    0.49580374451697
O           2.43709824609228   -0.23296952826180    1.95796069017183
H           3.20524386642819   -0.78881956228631    1.81943146477780
H           2.41273507749789    0.39051364834373    1.18446621551043
N          -0.05874895802206   -1.12607330217614    1.64849699682944
H          -0.47138371896942   -1.75128754407189    2.33251177552067
H          -0.08060088263710   -1.59324451279600    0.68915646796817
H          -0.63168024609687   -0.24849051250243    1.58922454928863
H           0.93203717570935   -0.86912028978952    1.88459707907994
