    26
        -50.45851140  Gyration_radius:  2.58902148016 Dipole_moment: 2.986
 S           0.68319388273902   -2.08775554715349   -1.17630183305161
O           1.05833292369845   -1.66233886321024    0.18145082007435
O           1.50372039748208   -1.47026285532634   -2.17714142623523
O          -0.74594861483459   -1.89107415972980   -1.39046452587736
O           0.93069685549965   -3.65363643259412   -1.22771507276973
H           0.29903513884855   -4.02068510192317   -0.61396805939217
H          -0.68389628213636   -0.46276862857979   -2.03557978930758
O          -0.53163428028555    0.47497276437134   -2.34445748701367
H          -0.21146266536358    0.38447550748550   -3.24452006975580
O           0.23606525463647    2.48925035625627    1.12982324018714
H          -0.66132123395404    2.30532297620482    0.81580307027331
H           0.30479305676706    2.03936087705329    2.00452276710243
O          -1.96336184474711    1.25736857122626   -0.11505458880417
H          -2.90761078923673    1.15171292085797   -0.24063006865009
H          -1.54873337368881    1.07198361960573   -0.97273754031512
O           0.23893471828178    0.91429459148675    3.26073661803719
H          -0.19141478769501    0.18527582718354    2.74710203697491
H          -0.27502756933558    1.01813460529989    4.06192335325450
O          -1.00511119112098   -0.77734446270341    1.64536216519034
H          -1.42524573798568   -0.17360808522406    1.01447553259911
H          -0.29314981799716   -1.22330509033108    1.14831305226183
N           1.45859696018751    0.84191516423882   -0.49130799633109
H           1.43139696729871   -0.13354706901731   -0.08384240939388
H           1.06032470372201    1.56288629173651    0.20462030635453
H           2.40734890845569    1.06090604731520   -0.77643647258538
H           0.83147843076555    0.79846616546697   -1.32397563282725
