    26
        -50.46906610  Gyration_radius:  2.46883053832 Dipole_moment: 4.271
 S          -1.80954114802470   -0.87760665712616    0.81898275478942
O          -0.75622963737244   -1.61869633292816    0.11919312420209
O          -2.02345384527241    0.41960454087057    0.22101283813856
O          -1.61826945598490   -0.86297363752921    2.25047431352877
O          -3.14447196805017   -1.70620374722635    0.57629642164917
H          -3.14786537624023   -2.27137637588478    1.34153698952753
H          -0.41205756862299    0.22173697255653    2.26838252421301
O           0.36091902653000    0.83140255767897    2.24946107427200
H           0.28135094649748    1.38975273717691    3.02516778918301
O          -0.98528010532270    1.68169947882610   -1.77839139247188
H          -1.42093491989005    1.23366149455813   -1.00793580455531
H          -1.61535420232811    2.32606086461007   -2.10289336478311
O           1.25802081163379    2.05847733287358   -0.08190932731087
H           0.49602677338937    2.10665761268231   -0.67609016591232
H           0.92233342608647    1.69668809392047    0.75533972296984
O           2.62401749398434   -0.05191937031059   -0.95258162339303
H           2.52365959886621   -0.61513994084867   -0.14748245340989
H           2.34768463198180    0.84610931848301   -0.65338054603939
O           1.74582482994011   -1.35036946787272    1.19261426063875
H           0.87550629648169   -1.63921311940164    0.86944979428790
H           1.54886544773091   -0.60535319824402    1.77754411628027
N           0.38164165671330   -0.65352389091345   -2.04709282374861
H           0.38611910709221   -1.26589996256999   -2.85417847951234
H          -0.12393230190713   -1.10088029988059   -1.23330386870784
H           1.40077794649633   -0.43252011320924   -1.68420740086994
H          -0.09535748440225    0.23982512970788   -2.24600845296497
