    26
        -50.45774748  Gyration_radius:  2.43716134388 Dipole_moment: 8.236
 S          -0.42347926685011   -1.66238189543475    0.26396683414585
O          -1.84170528541872   -2.00974999468851    0.21641980039631
O          -0.19456010314894   -0.61279215480134    1.27047505536215
O           0.04431881155135   -1.19685395081473   -1.04409350930768
O           0.36801646764349   -2.90728551705638    0.67114151770077
H           1.30790983987091   -2.59208472392222    0.91172286703297
H          -0.82006855843351   -0.00711470555650   -1.60868712335950
O          -1.42511384578808    0.74079141633196   -1.88223775079534
H          -1.71330778157699    0.52552590770050   -2.77069865535886
O          -0.43273484951992    2.89853314519224   -0.49627748994907
H          -0.00183120352527    3.57877617579756   -1.01618661394129
H          -0.69753543757019    2.19861567994341   -1.11612448836151
O           1.50790142902638    1.43062220168242    0.88704048586119
H           0.93485346350147    0.68472035282136    1.14212805757236
H           0.90380673382381    2.08523591065875    0.50369108249544
O           2.59846724872430   -0.31043198924858   -0.87086224158171
H           1.73073085067834   -0.65730359502315   -1.14328143086219
H           2.39441828972153    0.48392968573610   -0.33592405674896
O           2.62344257091992   -1.87163353876107    1.22647214606851
H           2.42647174517568   -1.22027794834409    1.90549818388389
H           2.79869785870258   -1.34598185562661    0.39459864099815
N          -2.46698529464305    0.39837613237847    0.59086798145243
H          -2.31591647202008    0.82102690135999   -0.34387296767369
H          -2.51396830659642   -0.67748407210262    0.43442533851073
H          -1.55375033137841    0.41260887706556    1.10639547537576
H          -3.23807858286628    0.81261356470252    1.10340285108439
