    26
        -50.45774743  Gyration_radius:  2.43720371 Dipole_moment: 8.235
 S          -0.91378537417877   -1.13594568194152   -0.94160670675614
O          -1.41174143104423   -0.17485321373445    0.05621797586789
O          -1.02808389840569   -2.49792321746995   -0.42570985053079
O           0.47713594302591   -0.81871659006154   -1.27524220153482
O          -1.77574737056196   -1.01964635539723   -2.20074383395566
H          -1.85768574523310   -0.02458192660610   -2.40987482586950
H           1.45985694563791   -1.06077478916977   -0.06818395506452
O           2.00226853670858   -1.24474980405015    0.75173970000829
H           2.72573037674781   -1.80215458231363    0.46075589515073
O           0.70668540555394    1.78772081453617   -1.97796098732895
H           0.53286947174820    2.14954285934389   -1.08484171722339
H           0.80595143882662    0.82878167498971   -1.84356341232468
O          -1.84027486002885    1.50534205829789   -2.49756948878026
H          -2.20345671777279    1.83389744636651   -1.67032436084834
H          -0.86521810840564    1.72294189810974   -2.46661078510204
O          -0.21884669909535    2.18574571960325    0.53113023548158
H          -0.75894453801786    1.39104553738792    0.36807349553978
H           0.38717085432146    1.92958322267157    1.24352130702887
O           1.61262343650228    1.00332654458400    2.28673353558188
H           1.89551169716416    0.28111566983363    1.70141557028609
H           2.36753906453642    1.58439187280159    2.39242013141706
N          -0.41411085525497   -1.69964469079626    1.88004069020908
H           0.61357377775365   -1.57889839275970    1.81328649417559
H          -0.70255882009718   -2.32410750971320    1.03700992712497
H          -0.72785466530271   -2.00581047773337    2.79474356171349
H          -0.86860785514567   -0.81562808679251    1.54514361574384
