    26
        -50.46727649  Gyration_radius:  2.55401465543 Dipole_moment: 4.347
 S          -0.29956075844626   -0.40420120857772   -1.70679475209907
O           0.39949803677158   -1.55979855001888   -1.18703803275544
O           0.57424484537466    0.75774956756314   -1.85282102289315
O          -1.46052279264599   -0.04827784628193   -0.87958658025745
O          -0.82632913599705   -0.79118051200490   -3.12717502550305
H          -1.31831433640273   -0.00136008302653   -3.42036288034174
H          -1.32344803230692   -1.00151913885756    0.49049176809860
O          -0.91573811348342   -1.57607153919902    1.17896125059851
H          -0.46674944209964   -2.24703628012015    0.65024888996524
O           2.66520544268570   -0.46339134895789   -0.40096341906875
H           1.96208926645418   -1.05723463024394   -0.74314995737524
H           2.61809303345200    0.29535017105301   -0.99276952462436
O          -0.06796941180958    2.13446964064257    0.28775405753998
H          -1.00526204698385    1.91959409851843    0.31747477627004
H           0.24456064112140    1.74336735698426   -0.56217662193595
O          -0.12034642562604   -0.92234747063568    3.88038289303067
H          -0.64029010488602   -1.30058795376782    3.15905621745207
H          -0.51718499007763   -1.23074709531771    4.69571505245124
O          -1.88069692821635    1.64081327591442   -2.92872840764985
H          -2.04033902864814    1.21040118610202   -2.07277160862261
H          -1.01336234580816    2.05236225296249   -2.85425770280484
N           1.10823840675874    0.17836567778506    1.63868068568989
H           0.69881195633880    1.08801122603207    1.29782541443936
H           0.35849055107811   -0.54847693101800    1.52037486356553
H           1.90307043503331   -0.07377696500334    0.98832177464421
H           1.36381128840346    0.20552309946582    2.62330789217774
