    26
        -50.46804462  Gyration_radius:  2.44153426388 Dipole_moment: 2.592
 S          -1.58713816785935   -0.59242202523144    0.94559646107285
O          -2.04723747246374    0.61387534828575    1.61477174829393
O          -0.23247915523589   -0.96529863945477    1.29593919690094
O          -1.78243939423260   -0.50676680417483   -0.49454296819960
O          -2.51193556212158   -1.76605818840979    1.46374126457118
H          -3.37155010512108   -1.36343073322209    1.40652734622706
H          -0.45839341985129   -0.90078558085904   -1.51637959772886
O           0.34529308530763   -1.00683976300488   -2.06034765985211
H           0.70700172461621   -1.86054041278420   -1.79297460633410
O          -0.98272299710743    1.66784970683308   -1.85157366519235
H          -0.30780297020236    1.25730828558618   -2.40144619587705
H          -1.47868531186698    0.91688297432640   -1.46931095785635
O           1.62750934357662    0.98916951153186    1.37881423751788
H           1.05425569814675    0.22737586209612    1.58201316505479
H           2.11564241399825    0.71024265470965    0.56380246717392
O           2.57676424398261   -0.05774697890134   -0.85323402062651
H           2.81915656978800   -0.93362364008834   -0.53354833347786
H           1.78054456696769   -0.22520836863507   -1.39842652370227
O           1.43794219450793   -2.60636231469783   -0.03012509514868
H           0.82762478227994   -2.02798889719769    0.47049649526993
H           1.49227591042046   -3.42344715119182    0.46635339158200
N          -0.40372935724605    2.40673148236341    0.64051123219532
H          -0.53614665161737    2.29730406415546   -0.39687166379298
H          -0.47337828804455    3.37717828217360    0.92635452974192
H          -1.14560166841556    1.81346577206261    1.10253043555171
H           0.53523000816088    1.95913554370156    0.94132930678960
