    26
        -50.46758756  Gyration_radius:  2.51995475803 Dipole_moment: 5.352
 S           0.04712444730853    2.13395965907085    0.32189040277255
O          -0.60616944945258    1.46673388348397   -0.78141871107567
O           1.42463081889438    1.67661540543837    0.50131171884828
O          -0.69485845712424    2.06756431478551    1.56840586058180
O           0.13202971830307    3.66507334399149   -0.06383608925367
H           0.33381782959881    4.08251273837379    0.76732092934538
H          -1.09287647120813    0.58879459745575    2.00921045742633
O          -1.24514700667914   -0.37010923502984    2.22549238737838
H          -1.72418677411552   -0.38521359517499    3.05548743303347
O          -2.32530672753772   -0.57200843575311   -0.35580799932984
H          -2.15363804588314   -0.67097357427682    0.59088453645561
H          -1.82436851821665    0.22012466605127   -0.62084243103221
O           1.52645461266047    0.54779854941439   -2.08054334751604
H           0.65570876023968    0.88032746360019   -1.78910769527161
H           2.15085358683392    1.00781444479976   -1.51180726980485
O           1.37927412514228   -1.94261412633313   -1.12993128983680
H           0.47858184020232   -2.27043790770115   -1.36900487445103
H           1.50403694279126   -1.11282477154789   -1.64709208425090
O          -1.14008187384124   -2.53295937274774   -1.69839378874399
H          -1.38701668760501   -2.41232804396094   -2.61629719116771
H          -1.64694318206243   -1.85323016585521   -1.19085206555858
N           1.24504241219800   -0.85527961050619    1.18710246631582
H           1.96228554513159   -1.18896205190143    1.82203002669454
H           1.28932622689220   -1.40492980521912    0.22640657431529
H           0.31103647651930   -0.93085329984439    1.62185842319794
H           1.40038981093568    0.16540493940235    0.95753362094148
