    26
        -50.47398939  Gyration_radius:  2.40005644795 Dipole_moment: 6.571
 S          -1.32654473816753    0.50665751579411   -0.75647911307009
O          -1.33217619430788    1.13471364771820    0.54406074982022
O          -1.88571721203037   -0.83061226532356   -0.77533736497395
O           0.04133038391687    0.49038995573023   -1.32431346104513
O          -2.17342203343784    1.41959786001916   -1.70037713693606
H          -2.16453452995711    0.92813699587044   -2.54356162820694
H           1.05534628842507   -0.62749604222011   -0.76496786848848
O           1.70726276222308   -1.26362965181999   -0.36850384515792
H           2.25898464030115   -1.56767470011459   -1.09070516446636
O           1.03060229890567    2.40632214601951    0.20224915947534
H           0.78440039336392    1.79632096681175   -0.52575023238971
H           0.17449581382511    2.61190094216453    0.59868302078738
O          -1.51619016338397   -0.49956600325824   -3.39917402819902
H          -0.60226854129803   -0.26123714234489   -3.20741736399916
H          -1.80693938404369   -1.01283526697588   -2.62758164817651
O          -0.54526486717516   -2.29026177275865    1.03688869598076
H          -1.17446343449330   -1.88695385136824    0.40812309740127
H           0.31075620006391   -2.25838835611820    0.59110687565654
O          -0.45691094464022   -0.21104195333801    2.66878660950143
H          -0.96062747830171    0.36022702521549    2.05394251866252
H          -0.56191408901974   -1.11296969961759    2.27999808778706
N           1.86536446518455    0.43515352480085    1.75795119919569
H           2.63596779392406    0.55636789618695    2.40478760023088
H           2.05624394902512   -0.30665884668014    1.06201226412926
H           0.93184661238269    0.16169028392408    2.26483380214528
H           1.65437198870798    1.32184679167622    1.21074517434776
