    26
        -50.46548632  Gyration_radius:  2.40318134139 Dipole_moment: 3.756
 S          -0.72407072069725   -1.80669670766694    0.00707421702506
O          -1.23413477055109   -0.58678853561837   -0.59632246916378
O          -0.68462843534198   -1.74161262441712    1.45616479968079
O           0.53175511174029   -2.23770374953474   -0.56839995851873
O          -1.79616992225813   -2.91940749024629   -0.35873812386906
H          -1.45639720762896   -3.68886397862588    0.08656932349815
H           1.45217275994586   -1.03912031323079   -1.24549880163545
O           1.89754762457127   -0.23959888080901   -1.60535925351517
H           1.47175984920452   -0.07909800571486   -2.45190868468985
O          -0.65023193330030    0.96536393236168   -2.65676273136814
H          -0.87368581048600    0.30522382597551   -1.96105918898727
H          -1.48160059802160    1.18287742939202   -3.08037889611856
O          -1.24551212158463    1.56403954201889    0.99822499551512
H          -1.04597075485805    1.25074472524967    1.91085745748402
H          -1.46456332030942    0.75586815358163    0.49560529989371
O          -0.51974973116244    0.32654856752479    3.25377508687025
H          -0.75031654832448   -0.51991889589369    2.83639760333987
H           0.43486213590288    0.39721170553383    3.14974394089156
O           1.47948150078387   -0.15460195237744    1.22112767502753
H           0.74649767652446   -0.79214528213879    1.25789924416340
H           2.21239215879936   -0.62724437546778    0.82119654426263
N           0.76154431950573    1.96874690021309   -0.58817679610167
H           0.24484059771889    1.96392610623345   -1.48719184422769
H           1.34136880579942    1.09285694224425   -0.61943288003946
H           1.33784202312954    2.79330802186300   -0.46747245796839
H           0.01496730079231    1.86608492947969    0.19206589863246
