    26
        -50.47391901  Gyration_radius:  2.43997840133 Dipole_moment: 2.120
 S          -1.36746885629540   -0.92589242671423    1.00393300696421
O          -1.73742012100606   -0.34923288173195   -0.28072459823514
O          -0.41614557047143   -0.07110715834328    1.69903079254470
O          -0.95578771471738   -2.30750152058359    0.90637822857586
O          -2.67675961742519   -0.93371020417497    1.89334532880582
H          -2.95501081974578   -1.83371457948332    1.76972107518382
H           1.34158179192032   -0.44584261880995    1.47870499333255
O           2.21152950326396   -0.58602535556001    1.07036573505859
H           2.10263843134459   -1.37307553671697    0.51355962219473
O          -1.92322388092204    2.11070061563693   -1.24943176318972
H          -2.06364341021927    1.20158221676382   -0.91097880444107
H          -1.58375531448356    1.99862855200817   -2.14098411448131
O           0.39003219802330   -0.33910199606723   -1.94322358831861
H          -0.42870064229733   -0.34876630335493   -1.41438072852008
H           0.81707396764339   -1.18358418508287   -1.73948696178232
O           2.07459399920873    1.35744992115793   -0.74113602835738
H           1.55572132845853    0.81384571628761   -1.37664402522452
H           2.37082919167391    0.70372801148969   -0.06449680725165
O           1.20469570095888   -2.60652251575444   -0.54709988559914
H           0.37998815338462   -2.55247283758351   -0.00878761250311
H           1.41290633789591   -3.53835527323934   -0.62914348374689
N           0.04410348309801    2.27445477924474    0.55793221357694
H          -0.19145090950202    1.41399115244024    1.11346861871403
H          -0.72965498951985    2.41891138431410   -0.13507991650006
H           0.16728970704574    3.07754435903837    1.16348875838424
H           0.95603807263986    2.02406866481302    0.01166994482583
