    26
        -50.45751812  Gyration_radius:  2.45692317078 Dipole_moment: 7.643
 S          -1.49636355715857   -1.38396831470862   -0.31669116951410
O          -1.98449150545474   -0.03457667940571    0.03129177474826
O          -0.37131746500974   -1.71231015285839    0.52382490856743
O          -1.31005121181343   -1.55687516289547   -1.73253467940514
O          -2.67791835946413   -2.37162234979257    0.09195736665099
H          -3.13284146681571   -2.51173218063526   -0.73286540803470
H          -0.61165793106376    0.71174048227663   -0.80112871534082
O           0.24460038267995    1.13012106673997   -0.99240048509058
H           0.62249732389185    0.58899182889020   -1.74685120365770
O           1.08710899754449   -0.66374549410602   -2.65823799040811
H           1.64144848732030   -1.18725462327509   -2.04160928600408
H           0.21699207084669   -1.09475578816912   -2.61555747762234
O          -0.26056437809799    3.09334783714806    0.81737425703513
H          -1.03409473160181    3.58479620312620    0.53636248676450
H           0.01637774162779    2.56741985620870    0.04132787869853
O           2.11095052185861   -1.94531218097168   -0.50316135870131
H           2.50279123929629   -1.27741519195130    0.06979654983942
H           1.21004561842550   -2.05958497708543   -0.14890004142528
O           1.94420943938791    0.52511429877273    0.96708105779281
H           2.49850222874970    1.29399430233919    1.11040939870129
H           1.41712352608324    0.71249924818235    0.15095560238602
N          -0.53126832451095    0.71557807325222    2.03030960075836
H          -0.82884438902918    0.48343918677710    2.97096119294900
H           0.42007596583302    0.33995317705470    1.81846490158600
H          -1.19847294633757    0.30794781822389    1.29117385538039
H          -0.49483727697293    1.74420970686643    1.83864699328986
