    26
        -50.46734473  Gyration_radius:  2.52240931777 Dipole_moment: 2.311
 S          -0.59316847688658   -2.33909666234815    0.16320196861927
O          -0.77870711326196   -1.33531551832630    1.21775078415649
O           0.80968523374385   -2.53606307085089   -0.13515452181944
O          -1.40461935466508   -2.07901668094345   -1.00417272333721
O          -1.13034369395003   -3.68841458013271    0.80102520238301
H          -1.06790420991548   -4.28362489887190    0.06170662733604
H          -2.97418046595466    0.83455577958840    0.80148977976674
O          -0.76340223843616    0.38617636905404   -1.67938558903052
H          -1.04088108130520   -0.55363700903177   -1.65351837018517
O          -2.02537526425039    0.92668961380053    0.70700401394007
H          -1.26743394322865    0.78145314501537   -0.94712896592186
H          -1.63681847763298    0.05370432785978    0.95216201242629
O           0.17574063962076    2.54811462600078    1.17736134664171
H           0.44082121790587    2.78324240367694    0.26320693797429
H          -0.73380480950043    2.21730716525084    1.10861128531411
O           0.91503093847274    2.62370279418294   -1.43091395179973
H           0.24885146115515    2.02583247302797   -1.79900198056351
H           1.76227258054231    2.20114690672003   -1.59250872697285
O           1.80535562946826   -0.33429175684345   -1.17096969782415
H           1.63027854458569   -1.27713471724152   -0.96859337270497
H           0.94904125740953   -0.01741313887017   -1.52515562083306
N           1.35889502776836    0.21496255653868    1.35769513865007
H           0.95316279359314    1.20328126693451    1.41551185918377
H           0.56726045075349   -0.46949168639452    1.45785458142664
H           1.72460543112630    0.06456817505534    0.36758674109340
H           2.07563790284059    0.04876209715026    2.05433525208323
