    26
        -50.46737547  Gyration_radius:  2.46859035265 Dipole_moment: 5.842
 S          -0.27974920964009    0.76573928102498   -1.87289234638937
O           0.08169028843258    1.98517345357781   -1.16300653328798
O          -1.47162207649930    0.13357434228003   -1.35400471801108
O           0.85128552706272   -0.14666589621958   -1.96665137712815
O          -0.62371551811995    1.21322057552843   -3.35010347632774
H           0.09523427990814    1.80427192956986   -3.54450980345491
H           1.84724068027741   -0.32978983163171   -0.72356398472839
O           2.44051281628061   -0.42299132108951    0.06784704795566
H           3.29116508828807   -0.70777626718987   -0.26857132585564
O          -0.62938274292092   -2.37569127693117   -1.05953014303978
H          -1.08986413639862   -1.52408068360733   -1.17633972158751
H           0.13736732865169   -2.30430035520408   -1.63466669088553
O          -0.69895220216433    0.11375321340366    2.55183971950734
H          -0.35057695818184   -0.76423380174885    2.25744945851279
H          -1.55166410657783    0.23521083079382    2.07712236629082
O           0.45376007600561   -1.96371570075795    1.38624477509767
H          -0.03656142204450   -2.24802260186858    0.58684770094040
H           1.27301092330772   -1.57350763969787    1.05232888849357
O          -2.80503642807667    0.39480460743972    0.93694753710453
H          -3.42796692256151   -0.33366500278152    0.90299033568856
H          -2.35518710794623    0.39928014236109    0.06866000638139
N           0.98328280366505    1.55267395780013    1.25698006645046
H           0.54938254607250    1.81382128697834    0.32828975780389
H           1.32271031942311    2.37677313508582    1.73986685017621
H           0.24117456438655    1.00423357266990    1.86556074472528
H           1.75246157935675    0.90191003020659    1.03486485556750
