    26
        -50.46804855  Gyration_radius:  2.45347238152 Dipole_moment: 6.134
 S           0.24655994628264   -0.89435700749693   -1.50228380110026
O          -1.01120311695716   -1.46392740898854   -1.88151990966935
O           0.65836025953124   -1.27307800405867   -0.13826318434061
O           0.24267043976155    0.57843374063594   -1.59246247693873
O           1.35157490606404   -1.39883167384011   -2.46850437061274
H           2.19082041611978   -1.16728431441016   -2.00458991568823
H          -1.01551321732065    1.33506209466895   -0.92754606495476
O          -1.66522472314852    1.76993232775128   -0.31718338087542
H          -1.92428387795507    2.59250317474843   -0.73435173535211
O          -1.84284930017003   -1.14205917262557    2.61908237988344
H          -1.51614359666239   -2.04064775609065    2.69156290448897
H          -2.29901457217513   -1.09817519986831    1.74044775404864
O          -2.68235520345895   -0.83599599488195    0.12848601145814
H          -2.15442208799668   -1.21966892056142   -0.59891502025779
H          -2.68124481410488    0.11538739860488   -0.03691912667951
O           2.06528846985640    1.68264747298871   -0.08221430777273
H           2.41509273615971    2.44794897154699   -0.54084998867141
H           1.36767468880485    1.30819487033539   -0.67446539493102
O           3.20226256793756   -0.74832095004780   -0.71734154115130
H           2.55354043386658   -1.22378561533698   -0.17716164136960
H           3.07406809403070    0.18639574088435   -0.47477009290140
N          -0.10375101752789    0.52429180083092    1.56476464940060
H          -0.68862406579201    1.19109391830388    1.03215179384612
H           0.27115378529825   -0.19597195445889    0.86306478043402
H           0.67032941299427    1.00226110608300    2.01503992761988
H          -0.72476654343056   -0.03204862472893    2.21474178208986
