    26
        -50.46631691  Gyration_radius:  2.51820179242 Dipole_moment: 3.869
 S          -0.75191821712869   -1.07978850775979    1.55208183492760
O          -1.63589774333433   -0.22811053090759    0.76326536144950
O           0.30825281491057   -0.31316315015962    2.17517341643498
O          -0.24703883372405   -2.21320485896549    0.80276817538676
O          -1.65945306390550   -1.67390799405584    2.70654845713591
H          -1.11181779251944   -2.35751549230894    3.07992255447341
H           0.43021243182655   -1.65186206634705   -0.58221927189472
O           0.73635716726512   -1.12797939158390   -1.36009875861300
H          -0.01170540102786   -1.14748513489533   -1.96844394092121
O          -1.15467010213857    2.03211021906927   -2.51352823497489
H          -1.55675925630177    1.15469292782080   -2.35611134625572
H          -0.95712162248999    2.08227353027134   -3.44929548745788
O          -2.00600883071873   -0.49094387451237   -1.84369780744705
H          -1.92117752355822   -0.44873547653134   -0.86251112340741
H          -2.89887878192232   -0.79472190942670   -2.01335812891019
O           2.01353441416751    1.85794975442826    1.59778480403434
H           2.63803818918353    1.15481125274789    1.34440366094784
H           1.43794832848390    1.42314821904810    2.24181471158705
O           2.67330184639807   -0.67879704886820    0.86422950941168
H           1.85823689382560   -0.76267625436188    1.38968538007683
H           2.49447866748482   -1.10974766261174    0.02482549015143
N           0.27500790278402    1.30717856701197   -0.32309861039486
H           0.66897873852447    0.44940135825238   -0.78560864232420
H          -0.07852049446565    1.94067514796405   -1.05653241929244
H          -0.52915031869376    0.95277094059327    0.23308232534917
H           0.98577060708015    1.72362743609385    0.33891806054978
