    26
        -50.45889326  Gyration_radius:  2.49195211477 Dipole_moment: 1.795
 S           0.33662343185865   -1.83205407456581    1.11260825667487
O          -0.70326733546881   -1.53971239546206    0.13870729655012
O           0.51654817404989   -0.74183105460384    2.05106688294103
O           1.56739260837469   -2.25743985644328    0.46704530955631
O          -0.14709084302396   -3.08308724259172    1.96053093148504
H           0.28341340060313   -3.80654529353427    1.51635741921381
H           2.24539151656857   -0.75232227666927    0.23706158703619
O           2.42738243438723    0.21192893663080    0.29353546561836
H           2.30839689929692    0.39799588857756    1.23019136623080
O          -0.85901790394877    1.43604453051981    1.74451818658899
H          -0.73259192602198    1.90908687302140    2.56849051738678
H          -0.44402797904750    0.54569861381831    1.87714766483929
O          -2.32092788851046    2.56937935622279   -0.49499847691031
H          -2.26398202159345    2.20131567639327    0.39278360936825
H          -2.48119816164842    1.81996040415835   -1.07817048658234
O           0.84764671409988   -1.12221860053507   -2.06896489701461
H           1.72037120957959   -1.51690094973374   -2.04033694885867
H           0.40148216883210   -1.43096660255364   -1.26242974216606
O          -1.61102533820115    0.08616129786488   -1.78547053499489
H          -1.53977027759515   -0.52893337569525   -1.03019665197491
H          -1.19216650758009   -0.37891490043691   -2.51722566333344
N           0.34560857756161    1.57808196841916   -0.67683260816418
H          -0.33226536363362    1.00577323637057   -1.24898391929261
H           0.54192078160559    2.45652459226974   -1.14582834566084
H          -0.13682497964941    1.74895435527459    0.23491471724569
H           1.22197857910602    1.02402088328322   -0.47552092578339
