    26
        -50.46382329  Gyration_radius:  2.56652283873 Dipole_moment: 4.497
 S          -1.35902524523563   -1.85611606010623   -0.25167538925823
O          -0.77792908393067   -1.89139177445069    1.06314563169186
O          -0.52407316342008   -2.44023548544822   -1.28992706287035
O          -1.79083328712145   -0.50442690410563   -0.62210752081779
O          -2.67358636844281   -2.74078770493323   -0.22079664486793
H          -2.78417716597385   -2.92636089425837   -1.14709433477270
H          -0.52477693360285    0.38933985870809   -1.27866462705895
O           0.33024207393711    0.85521023247945   -1.41943677326039
H           0.98936986195093    0.14483411643003   -1.51097086001853
O          -2.05245366265570    0.99961441993460    1.52432564557425
H          -2.68773556827612    1.66040399156503    1.24263278818546
H          -2.02024044965057    0.33095654328692    0.80176643321630
O           1.13678308998384    3.45786516289147   -0.57026396027816
H           0.84742444853714    2.72997641934910   -1.13797945375915
H           1.33591577455975    4.19303579750051   -1.15044606771705
O           1.66440192903010   -1.03416704924977    1.61755852001368
H           2.00429708684042   -1.20073194966679    0.72289413218996
H           0.78982842301861   -1.47705574866315    1.61760836260272
O           1.83431560099225   -1.40954497381923   -1.12669572816717
H           2.42890461151223   -1.91791828163192   -1.68051710351126
H           0.95379387452117   -1.87079339948280   -1.17758713837805
N           0.58814533485636    1.32237331862766    1.22650892644725
H           1.10847780766855    0.45300336684859    1.55739239516783
H           0.54021218790633    1.24925483429769    0.17862683724896
H          -0.40257940535712    1.28780193306846    1.56105146311216
H           1.04529821838604    2.19586023001453    1.47065153010539
