    26
        -50.47263067  Gyration_radius:  2.51012887966 Dipole_moment: 3.701
 S          -1.36667526970180   -0.30977604693987    0.22974998031555
O          -1.18491071757036    1.00738092773811   -0.34584770185694
O          -1.79999974838019   -0.29016314231493    1.61480863599783
O          -0.16056263067785   -1.13102740152866    0.06874702563982
O          -2.48739167253603   -0.99706357973794   -0.63085748608468
H          -2.61565160889222   -1.86306194546192   -0.19469283740983
H           1.29235942173834   -0.56365286406230    0.85154481222984
O           1.92829152497494    0.05175326780987    1.26798976749027
H           1.44752130031765    0.40193603198724    2.04388007756081
O          -0.15509011141514   -0.64394734310041   -2.54325886304832
H          -1.01208397781601   -0.21209611719044   -2.57812164512698
H          -0.06422595481772   -0.93865831776052   -1.61585619573661
O           1.94324254558736    0.94226100799161   -2.88560982264279
H           1.14646781078798    0.35647631514507   -2.89904673892412
H           2.69888615521869    0.35707170600507   -2.96229726416091
O          -2.05478949842269   -2.92253814296649    1.12749271013391
H          -2.08579981133760   -2.13167874966126    1.68928271931438
H          -1.13353479332866   -3.00202608773595    0.85800670137776
O           0.07397251868852    1.04638242223555    2.94069090326607
H          -0.67486471964749    0.62222523473706    2.47004484889358
H          -0.10639025331269    0.93416144845707    3.87587128522694
N           1.29133701142780    1.88871474239396   -0.47978064620788
H           0.26062896231273    1.65706982312838   -0.45554688817686
H           1.72635449077483    1.23165930776175    0.24483811115137
H           1.64778924822752    1.64402119407713   -1.43922834107983
H           1.44511978780093    2.86457631899326   -0.25280315813729
