    26
        -50.46967135  Gyration_radius:  2.42640984529 Dipole_moment: 1.699
 S           1.34098015251486   -0.82369102262780    1.28568863554199
O           1.46408674758299   -1.45451069246312   -0.00509507258141
O           0.21947601508530   -1.31180138501044    2.07083467172138
O           1.32665114412787    0.63736150162434    1.19400693522136
O           2.64344697373418   -1.20023286385405    2.10376968012069
H           2.37845817200673   -1.01826615708935    2.99939740427974
H           1.41292150330369    1.57241175009274   -0.17344671412557
O           1.38630420263145    2.09088433745150   -1.00956444546771
H           2.16779645270507    2.64459090812798   -1.01088682425826
O          -1.28907384561931    0.87949613828016    1.36066747509636
H          -0.30937443133421    0.92820915387004    1.33105467179157
H          -1.45871652047687    0.18081761426663    2.00011927214177
O          -1.43937756844911    2.38347624028315   -1.07274424210382
H          -0.48063645005845    2.43764281048110   -1.18564964511617
H          -1.59258194705447    2.45936181282423   -0.12719789985902
O           0.59698036468482   -0.23362867988122   -2.21007083864553
H           1.04343198155482   -0.76345758220180   -1.51841037056716
H           0.91428693473810    0.67392210668395   -2.06910676615184
O          -1.01330383011695   -2.70284124342681    0.20250717167639
H          -0.64288976147834   -2.27890850850328    1.00792267974957
H          -0.23024625475596   -2.95480703680775   -0.29778472455961
N          -1.71681033163897   -0.43122004203852   -0.98548569403388
H          -0.85840228519284   -0.26937591334432   -1.60460105589105
H          -2.57081700109501   -0.28205491466718   -1.51156013589907
H          -1.62875881639442   -1.40544578554726   -0.58980529494681
H          -1.66383160099730    0.24206747349048   -0.18455888312150
