    26
        -50.46443341  Gyration_radius:  2.44665648569 Dipole_moment: 6.633
 S          -1.31413668640788   -0.89030311849446    1.19279950444497
O          -2.66741243282220   -0.40889047960156    1.19939828507191
O          -0.43466292809435   -0.15778337119203    2.12835315120196
O          -0.70560562611093   -0.86400313669291   -0.13162794219707
O          -1.33209149427263   -2.38584845963962    1.66024523724259
H          -0.39103929477734   -2.63324213519169    1.64108042012399
H          -0.08660001916559   -0.57813488266596   -1.55535629549017
O           0.44371392113371   -0.38614868135138   -2.36941837923406
H           0.11006605097816   -0.98389751156111   -3.04004006815537
O          -0.31704593950009    2.12865049438427   -1.38354694478199
H          -0.07782502000327    1.41605875363743   -1.99543946384597
H          -1.25680543970723    1.95061197026946   -1.14481088245592
O          -2.78543726346185    1.46761682331922   -0.64625919210052
H          -3.42076483857926    2.07772747512424   -0.26744046055411
H          -2.75040963351358    0.70451343310491   -0.02611901673003
O           1.34762263830667   -2.08975872749733    1.61903262723917
H           0.90358803035028   -1.32290903459100    2.01769910908140
H           1.72869337219118   -1.77075373814273    0.79039638182816
O           2.50711836247030   -0.61101976764299   -0.63713858229312
H           1.82419227615009   -0.60804719566591   -1.34243709198463
H           3.35479239528926   -0.74313395396691   -1.06389458854762
N           1.08359319073283    1.35652054801252    0.68203330831307
H           0.49964467352194    1.74504187999009   -0.13752497551398
H           0.42667074694185    0.78893977438196    1.31314756527149
H           1.77804939402736    0.69899224386279    0.28964035736025
H           1.53209154432547    2.09920077780516    1.20722794669172
