    26
        -50.46789710  Gyration_radius:  2.48467095747 Dipole_moment: 3.012
 S           0.12244268316866   -1.62871795325737   -0.99465666448587
O           0.22825420612667   -0.44963322244482   -1.83430462128217
O           0.07887795966230   -1.25043086310849    0.42040011612016
O           1.05845568730435   -2.68113787188451   -1.27707902221699
O          -1.32599910962089   -2.22481701710523   -1.31169963171555
H          -1.21196737517380   -3.16874933439284   -1.25789439039874
H           2.38411183098161   -1.76936480560970   -0.61516667500789
O           2.88235776584541   -1.12595531075100   -0.08077871761077
H           2.58765102364590   -1.26959898149479    0.82123429662278
O          -1.88160064922561    0.95498518675086   -1.17935239223838
H          -1.16150034897084    0.37232315349659   -1.51457001928498
H          -2.49074466704559    1.07723117663491   -1.90844022775193
O          -2.21724968709138   -0.14429087811383    1.40840331468801
H          -1.48898632410168   -0.75058168125560    1.19379429982889
H          -2.44468717845792    0.26551284693296    0.56172567464301
O          -0.90918391145912    1.72968161242886    2.84766061901165
H          -1.50654529503241    1.06690731180352    2.43069144833101
H          -0.88285650296827    1.51948639096408    3.78104087548314
O           2.30457366346257    1.27819015827679   -1.19921288593168
H           1.68627834424884    0.83075571660445   -1.79737194565400
H           2.80655378419178    0.54036459713756   -0.80494262612176
N           0.29028271344842    1.39889621991442    0.47833496097536
H           0.24500466861952    0.34792886342466    0.53918424983484
H           1.17953723159993    1.61397648302308   -0.05036936812317
H          -0.52096028161089    1.67978641280086   -0.08582516725068
H           0.18789974840985    1.78725178923133    1.42919448951581
