    26
        -50.46692353  Gyration_radius:  2.42073275243 Dipole_moment: 6.584
 S           0.96205752377425    0.08057921659933    1.37572584293479
O           0.23522196200295   -1.15360959903214    1.15909989700471
O           0.28060889584327    0.95200744075432    2.31906360345843
O           1.30986839944437    0.76508291811432    0.14449158091354
O           2.34908350031744   -0.31278346264077    2.03854736508576
H           2.09188590478519   -0.58809249221176    2.91228854195803
H           0.23808554303093    1.47570620173099   -0.85381347720603
O          -0.50044600879712    1.90522236914948   -1.34829062771922
H          -0.09433764152950    2.54725928456752   -1.93259269811824
O           0.65988245257801   -2.04684409783040   -1.38051385914281
H           0.51187550127702   -1.87193552892579   -0.43647689101736
H           1.57477142706112   -1.77196583559961   -1.54244709519032
O           3.15232925190696   -0.87761795105529   -0.91607052310735
H           2.56851882945200   -0.17882828842361   -0.57385853070020
H           3.65994355154533   -1.18516700017107   -0.16333674141774
O          -2.36303486045023   -0.98566027605549    0.39897282061942
H          -1.52094985346620   -1.31002742920098    0.76612000101540
H          -2.21392627157264   -0.97751988351157   -0.58766919673321
O          -1.54119341885895   -0.65928571471309   -2.06641474639039
H          -0.75121870023253   -1.23857043522178   -2.00258174152305
H          -1.20686523758169    0.24693372103580   -2.03303918703274
N          -1.89996964233650    1.47023838922770    0.95295926055728
H          -1.06899068352099    1.36743919485712    1.59709729730251
H          -1.56652157491346    1.87213449750277    0.06095098543665
H          -2.23706731564270    0.43754290553765    0.74160341280489
H          -2.62961155413306    2.03776185550800    1.37018469617235
