    26
        -50.46422337  Gyration_radius:  2.57429122414 Dipole_moment: 3.154
 S          -2.16145317951374   -0.15584122052655   -0.79741911811591
O          -2.15110931365688    0.96104859613110   -1.71469941615739
O          -1.39447614670743    0.09932255023296    0.42394177852677
O          -1.75643674859382   -1.41573547300721   -1.39111014761678
O          -3.67406947818754   -0.30577493209389   -0.33969984032818
H          -4.09161450793390    0.33260433551076   -0.90863992592926
H          -0.24274948455367   -1.80776719723836   -1.68698632271347
O           0.72983407811764   -1.93006742434196   -1.85150930020407
H           0.79483692902384   -2.57640640566947   -2.55569610862163
O           1.84104900031825    1.71028599875572   -0.05960424469735
H           1.28315410781562    1.54915786649266   -0.86766955741685
H           2.59928025296385    2.21661397556909   -0.35226872665484
O           0.07338374788615    1.59757867719662    2.19340833164682
H           0.70776982035891    1.91755877721304    1.53773240656163
H          -0.64727721141182    1.20894645446286    1.67174666311671
O           1.10066688688899   -0.63949685639973    3.25030255358793
H           0.76581873702405    0.26249540854833    3.02372045095454
H           0.46200021415200   -1.01129351523794    3.85961386334987
O           0.46508368112723    0.90308466098012   -2.12964835779067
H           0.62883581640547   -0.04656028250121   -2.22206144032338
H          -0.50510252720338    1.01199261244081   -2.05461406916933
N           1.05988281246125   -0.80744974876459    0.59483137145184
H           1.24770378722147   -1.52902433972119   -0.10887125325024
H           1.60391523573529    0.05240580724989    0.38938713267658
H           0.03898438085316   -0.52411393009293    0.50822093695824
H           1.22208909927850   -1.07356437530235    1.58759232020664
