    26
        -50.46282804  Gyration_radius:  2.48618342077 Dipole_moment: 6.986
 S          -1.75548463437079   -0.59122133608003   -0.98930126305905
O          -1.63265998348275   -1.43455343900906    0.16827069887688
O          -1.07157607457496   -1.09615777636812   -2.17453848421153
O          -1.35292428390436    0.79230874556355   -0.72160295805044
O          -3.29025603007845   -0.54175553090867   -1.36951035540116
H          -3.27712839019296   -0.29007891116681   -2.28733349452917
H           0.11039792488170    1.28552570419134   -1.11785098972591
O           1.04662218660600    1.53495547249069   -1.34080337321405
H           0.99075136992681    2.20562001320190   -2.02298457149418
O          -1.50308438328113    0.69956652757605    1.96733157949245
H          -1.45915166403674    0.85377766657278    1.00665549954485
H          -1.96377841419862   -0.14037898660651    2.04671164044751
O           1.53914082760779    2.33296722419314    1.27792402426348
H           0.66663216960694    2.63148026487558    1.54664267112063
H           1.46870699331231    2.09857062591053    0.33862010628163
O           0.87291344565402   -2.05805204676354    0.91790752141763
H          -0.09325172016051   -2.02931144093496    0.77767762146574
H           1.04777251284426   -1.36101337140835    1.61093529914498
O           1.05863449482298   -0.03797363363052    2.56107621013057
H           1.52087637114329    0.74276367929742    2.20957110073330
H           0.11503009454827    0.21777826145245    2.54364898995111
N           1.42630771650555   -1.16555925975509   -1.40905700909714
H           2.11850671185249   -1.67837511289830   -1.94386738039968
H           1.31609989270380   -1.56790914214133   -0.38229553221608
H           1.63971513678565   -0.15659834389397   -1.37695520440775
H           0.46118772946931   -1.24637588376262   -1.83687235706301
