    26
        -50.46843537  Gyration_radius:  2.46841697908 Dipole_moment: 1.087
 S          -1.00754635715300   -0.62959619048392    0.52729766518315
O          -1.60890914368509    0.28620050937139   -0.42359235380177
O           0.15469316185757   -0.03102622700084    1.17553920675214
O          -0.66101053135897   -1.91679740957054   -0.07208260177571
O          -2.08520700278494   -0.89191698332156    1.62552649502400
H          -1.70946470167466   -1.63469709047348    2.13832142758936
H           0.58961178399876   -1.63510809032484   -1.10306665023010
O           1.31078907229260   -1.40968386893659   -1.73613098996576
H           1.42329055535406   -2.17814022808572   -2.29837541231562
O          -1.62743250645533    2.85241549563088    0.39129650008370
H          -2.51558930645791    3.15882696293552    0.57594091976026
H          -1.71483999707540    1.91986626027870    0.10873731783932
O           0.15423129709879    0.97997343319104   -2.34248280412312
H          -0.67155658418904    0.73954671796757   -1.88292805258193
H           0.68224844094110    0.16068315216273   -2.34339967142688
O          -0.78544411738543   -3.09859894448396    2.26833417822246
H          -0.54456069954202   -2.86427315148400    1.34972042183234
H          -1.27167604868703   -3.92507494564847    2.22275554965158
O           2.79356787447694    0.13294397215385    0.15636513074678
H           2.57655534289781   -0.41019987860953   -0.61153371494095
H           2.13321284321910   -0.11001212968469    0.81646639343305
N           0.89950343841253    2.13896416081662   -0.10543235828359
H           0.71852449195163    1.81266408970075   -1.10555396558380
H           0.25625848035482    2.90229140404445    0.12540061833010
H           0.62630706319525    1.30762369755193    0.49671924758161
H           1.88444315038370    2.34312528231070    0.04615750300474
