    26
        -50.46836247  Gyration_radius:  2.53792069726 Dipole_moment: 1.247
 S          -1.23731806997875   -1.46089539638849    0.11507812909817
O          -0.71673827355716   -0.70692188677683    1.23859939178882
O          -0.56455477349536   -2.72505768350759   -0.10291376740134
O          -1.27994058478048   -0.64328346448500   -1.09342910118799
O          -2.73623902304613   -1.82496385062496    0.47001256695611
H          -2.87084902486920   -2.60369379949081   -0.05927601301725
H           0.26818465277729   -0.24154681237763   -1.80008398297109
O           1.20812674026674    0.02033875012232   -1.83964664402298
H           1.69368810737608   -0.75289485322666   -1.50778066064525
O          -2.18405342994113    1.83644538936147   -0.90641215618721
H          -2.36848899614932    2.05512131161242   -1.82167439446574
H          -1.88303063304906    0.90100906618056   -0.91548667232871
O          -0.55896022706667    3.50338229546737    0.41853525466679
H          -1.20430397567631    2.97627790569878   -0.10588747317540
H          -1.03188755225511    3.79900998495858    1.19775253550463
O           2.11878335660757   -0.62780176844726    1.97774253149843
H           2.29248008361472   -1.19998175899624    1.21288919075451
H           1.20785625275401   -0.82663324603921    2.22377254855822
O           1.96562954202665   -2.16487721734883   -0.34473574086159
H           1.01511711082375   -2.41908040924856   -0.23555987005071
H           2.43637109550107   -2.97738290613125   -0.53852624487023
N           0.90256818164230    1.25202483147047    0.48689657966001
H           1.14356414721900    0.96868488998823   -0.50132023982425
H           0.13538113910932    0.59900745310914    0.78612123327076
H           1.69096826293776    1.03034658831189    1.11153162851909
H           0.55764591120667    2.23336659680811    0.53380138074807
