    26
        -50.46380753  Gyration_radius:  2.4912797003 Dipole_moment: 7.777
 S          -0.83470262426818   -1.81995699742226    0.00366980307566
O          -0.76580346464875   -1.10448804018575    1.24645810717886
O           0.45718573131972   -2.33246605180365   -0.44687033336748
O          -1.47877558630148   -1.05930145886480   -1.06932983432923
O          -1.74929173195357   -3.08542258413547    0.24426020160053
H          -1.70346749514326   -3.53480313561293   -0.59315246057245
H          -0.67316778228679    0.18390655024502   -1.68353353908151
O          -0.10881142036085    0.92802078322494   -2.02121790612533
H          -0.47706996415194    1.17968358717278   -2.86969234184138
O          -2.88386948036235    0.57998781960501    0.55435048259689
H          -2.58122767743357    0.20299852824504    1.38605455692152
H          -2.52565526646567   -0.01693682794312   -0.12375035039559
O          -0.94618920862919    2.47385665574697    0.21908399470189
H          -0.58258774976904    2.13091353500285   -0.60791344117762
H          -1.77627605820158    1.97646338304591    0.36181811691698
O           2.84648737917545    0.70069865417090    1.25599465467712
H           1.94801203374018    0.99212089423675    1.61960722520416
H           3.19788443422392    0.09472841555025    1.91031811654224
O           0.46791182416412    1.17612742917384    2.08510710074559
H          -0.00244442694933    1.81020723167024    1.49665660706036
H           0.02298721400653    0.32443876521915    1.93766188063315
N           2.04857946966716   -0.35750513105965   -0.99447050790157
H           2.42387763874457    0.07917511132340   -0.08624905842802
H           1.40230535524195    0.30523550197077   -1.46199609212140
H           2.81155441389260   -0.61065982350592   -1.61352842061155
H           1.46255444285308   -1.21702281513365   -0.74933656185042
