    26
        -50.46443336  Gyration_radius:  2.44686936478 Dipole_moment: 6.631
 S          -0.89190254231402    0.88718789441895   -1.53694414938401
O          -0.07184248314226    1.42123725354237   -2.58840125215885
O          -1.09092967060528    1.83522535843612   -0.42037857689272
O          -0.38089430982432   -0.36606520679281   -0.99529337174530
O          -2.30802008946176    0.58494266273811   -2.13615833922819
H          -2.80183800652619    0.24163777796887   -1.37113258397883
H           0.38452084486479   -1.58048616583316   -0.33914854737856
O           0.78711682872458   -2.30101461329157    0.20826552150579
H           0.77667317516307   -3.08182536932956   -0.34723237396267
O           2.50255248493217   -0.10387437643341    0.52540732951350
H           2.18201699582467   -1.01549468218103    0.44971804484883
H           2.54664332606943    0.22563025628533   -0.40267681718536
O          -2.93199889017301    0.09264411458323    0.44095533491473
H          -2.37334501596317   -0.54755298678715    0.90119146388775
H          -2.39017626064311    0.89345759947181    0.34403676242363
O          -0.97252546511142   -1.38963025797010    2.04723440545535
H          -0.37700686636632   -1.83778105148921    1.40820752612482
H          -1.13707223401632   -2.00622452997143    2.76199018178718
O           2.40802146489888    0.76606013327919   -1.98608562619489
H           1.47220205280539    0.92439646353330   -2.24546956628454
H           2.89765883172815    1.52079811372771   -2.31783569624538
N           0.35653129538925    0.98125115177530    1.54555514968392
H           0.51990917590508    1.68151385653178    2.26076296042658
H          -0.18460402935100    0.18234682946180    1.91609814100157
H          -0.20373882923004    1.39636924648983    0.72950419186827
H           1.28204821642283    0.59525049783626    1.14782987719731
