    26
        -50.44672586  Gyration_radius:  2.5263474318 Dipole_moment: 5.690
 S          -1.77260649867739    0.07152922107378    0.58273047754290
O          -1.01776846189282   -0.75372775442468   -0.33484598623429
O          -2.05602903540423   -0.55676829698912    1.83263683284644
O          -1.00829161392166    1.40385956954399    0.79078709288444
O          -3.05357325146077    0.56266203033684   -0.08316989422742
H          -2.75835286906562    1.23401636784945   -0.80166905121268
H          -0.06015980342291    1.24949196997668    1.13360580692672
O           1.38860151825493    0.96724546789132    1.49393474829227
H           1.84646048571338    0.98986461895852    0.63701844424713
H           1.47291802794355    0.03276969881873    1.76987307084325
O          -2.07687196671323    2.25978191894292   -1.69188843482129
H          -1.74435683975730    2.88727317391280   -1.04446877449823
H          -1.26590432689785    1.78847732999464   -2.05582889452036
O           1.85530529218827   -1.69778095873472    1.57710437667958
H           0.97534904605190   -2.15433621756827    1.49731974608020
H           2.33569416468817   -2.17016922987474    2.25862653973493
O           2.59277151653457   -0.13387405593634   -0.71809520617703
H           3.53523785798548   -0.27093478816253   -0.82901472836997
H           2.27262869982937   -0.86892566372424   -0.17310845107356
O          -0.53423339883218   -2.76392632617960    1.34065391621263
H          -0.70629079248249   -2.32592451159169    0.49011676292781
H          -1.13051499462321   -2.29440448195925    1.94120795323829
N           0.05311550205153    0.85654727892280   -2.39166950411445
H           1.00038964683971    1.10939974689444   -2.13621049509160
H           0.08284951239709    0.47105865093636   -3.32721839166958
H          -0.22636740731383    0.10679522107474   -1.75842796644729
