    26
        -50.44866777  Gyration_radius:  2.53179217816 Dipole_moment: 7.425
 S          -1.84035139552136    0.12771350420312    1.17426320912325
O          -1.82625904930745    0.47609568810310   -0.23286203848732
O          -3.06155866917954   -0.33317917541321    1.71278390821282
O          -0.70928805546694   -0.88891928363486    1.42934178647863
O          -1.37786951223060    1.37622027145921    1.97771422332767
H          -0.50563970214759    1.69402592668918    1.62093058027456
H          -0.04598282241105   -0.97453872440807    0.63908812562741
O           0.38760156694848    1.34831483776313   -1.40243043668708
H          -0.50894512728636    1.16840220252818   -1.05259471496118
H           0.79805288729889    1.91715359161581   -0.74053453906146
O          -1.79739439294926   -0.43548696094961   -2.80098937073608
H          -1.18012036676258    0.24866909353089   -3.07618530667624
H          -2.07826187143834   -0.18020046640154   -1.90689388394861
O           0.99862870631191    2.13898397583981    1.21593909206974
H           1.25414191689850    2.86245626516839    1.79089145568475
H           1.50948067107800    1.32336022185348    1.52538637982387
O           0.95966881274410   -1.07445504626773   -0.45736277697884
H           0.57147542807154   -1.74281643735832   -1.06678654667831
H           0.87356961097918   -0.20833859267210   -0.92450768973144
O          -0.31710574823490   -2.59143573163357   -2.22523303118887
H          -0.96200999381694   -1.89442712072413   -2.48521887917683
H          -0.00230676452858   -2.99057472000693   -3.03697638967701
N           2.15689347656684   -0.07810745039561    2.03193555893413
H           2.19782528826468   -0.62233188862522    1.17516990745620
H           1.45365597258223   -0.51573017813066    2.61648222300851
H           3.05209913352607   -0.15085379211863    2.49864917394545
