    26
        -50.45524936  Gyration_radius:  2.42866563352 Dipole_moment: 5.986
 S          -1.90033414762254    0.55562568801101   -0.38073368162150
O          -1.40881444454863    0.47138202069186    0.98068531519560
O          -2.79031454223322    1.63515806482939   -0.62880045231311
O          -0.69507565352465    0.58866604797400   -1.33730210321780
O          -2.55228079918419   -0.78713979265320   -0.75675600261580
H          -1.85465363222757   -1.48773187605727   -0.58792702189534
H           0.06282884982779    1.24166670076618   -0.98309032250272
O           2.27265361685102    0.08840501038750    1.01061050110368
H           1.55121392683631   -0.46225627884738    1.41787874941771
H           2.85161719491522    0.34088095269126    1.73128577698140
O          -0.92526730011316    3.09676818456785    1.05397342354817
H          -1.16120697088552    2.19722235462098    1.33621478593642
H          -1.64343403932982    3.36145171763628    0.47129440751572
O          -0.66226077790229   -2.52952431090161   -0.41242702016624
H           0.16246806662638   -2.11904800470447   -0.84405015516714
H          -0.87981568207901   -3.31406982774457   -0.91935587104219
O           1.06214766139207    2.05455388343102   -0.37789404338331
H           0.50381363594240    2.60293817676756    0.22020481552907
H           1.55787025793259    1.41243590651298    0.18016075291611
O           0.27676298613945   -1.33014365715970    1.97698998164139
H          -0.40326628334052   -0.65291915321250    1.80021442381876
H           0.04742732124004   -2.05482456599650    1.38300996380265
N           1.44751962055902   -1.40453399392051   -1.48904800060260
H           2.10075946852571   -1.87878182000315   -2.09946703859049
H           1.97562887306384   -0.97112813867150   -0.73722280677155
H           1.00401278312855   -0.65505327901806   -2.00844839751531
