    26
        -50.44655259  Gyration_radius:  2.4478657902 Dipole_moment: 2.790
 S           0.22362146996175    1.37451860172245   -0.59187888940290
O          -0.84080042860526    1.88749473314293    0.24354662002351
O           1.15745478952706    2.29856475912030   -1.12680325916262
O           1.01726713941947    0.34446523588928    0.26173160486490
O          -0.39907568610648    0.56446058104299   -1.73144323943999
H          -1.31532752194688    0.21377853627147   -1.39864379791736
H           0.53660518063841    0.00448726011546    1.06428028457005
O          -1.18750683476796   -2.12206084905023    0.49437476493739
H          -0.45951990641599   -2.23078555742942   -0.15678762232221
H          -0.78765191347750   -1.79224848770087    1.30683760760188
O          -0.98097888553240    1.96008541282551    2.88437294390500
H          -0.90207701312749    2.11944626905699    1.92021146947588
H          -1.86675198428604    2.23122955534882    3.13257540414429
O          -2.51084902733175   -0.17942595232548   -0.61740041740040
H          -2.46892726194419    0.54600664912378    0.01604521463951
H          -2.15534334313949   -0.99617561745996   -0.16221721839002
O           0.66457650057998   -2.14413559040611   -1.46810217718915
H           1.35419241900747   -1.44784099645731   -1.56543230757366
H           0.10544009452684   -2.04678566277473   -2.24146620396004
O          -0.05774071628790   -0.47010986478858    2.50150572330758
H           0.68609228256961   -0.62370431116121    3.08787795718101
H          -0.46375370331271    0.38825927819044    2.78122709354529
N           2.49492121236524   -0.18442258455671   -2.10744073753345
H           2.75566195595852   -0.15108005149667   -3.08582031128278
H           3.34856983975529   -0.24238304197286   -1.56595989233999
H           2.05190136197107    0.69836169571058   -1.87519058430334
