    26
        -50.46847042  Gyration_radius:  2.51372634311 Dipole_moment: 6.120
 S          -0.83854276317401   -0.08604284925924   -0.07371654351491
O           0.46281794608267   -0.78533496693104   -0.15682969102922
O          -1.64170859349267   -0.57270077509260    1.01793008469215
O          -0.49574771689734    1.41135863648333    0.16868070667165
O          -1.50568092238568   -0.11605700021851   -1.36786473022258
H          -0.54327539266778   -0.09218340424072   -2.48826210399050
H          -0.19576922635748    1.51876378406098    1.14905085161135
O           0.19590661786046    1.54192098911398    2.58894828624301
H          -0.68886118988256    1.50136333004501    3.00549619574587
H           0.57237557849950    0.64087989858373    2.71534828376475
O          -2.37272839412428    0.92254088190669    3.09162337059895
H          -2.20977133147899    0.29141792824192    2.35954580187212
H          -3.13517949051340    1.44064779350879    2.83075971163426
O           0.72142129039195   -1.07456140824692    2.48868699074150
H           0.72746117072692   -1.07944230602187    1.51401202085144
H          -0.14877265890132   -1.40524654482583    2.72982160647288
O           1.20115224646805   -2.40624009651198   -2.13048436477917
H           0.88043388968578   -1.96290154924515   -1.31519325586185
H           2.10608734026453   -2.66735081029779   -1.95006412576107
O           1.83062116394086    1.13526294179903   -1.37165966116512
H           1.49102861863571    0.40828204270591   -0.80621125717070
H           1.46805590813274    1.93435681646359   -0.97881808025038
N           0.31919298043339   -0.10798209746307   -3.15085129451286
H           1.00965802530343    0.54364658093536   -2.70116054339782
H           0.08458857930356    0.14068530953503   -4.10487487299288
H           0.70523632405366   -1.07508311500057   -3.06391338623715
