    26
        -50.45432586  Gyration_radius:  2.48357508829 Dipole_moment: 5.141
 S          -1.86437719935381    1.40318225020142   -0.13354009217240
O          -1.51033501759532    0.23232153754071    0.64864903571924
O          -3.04626396791096    1.29137299911644   -0.90841569341986
O          -1.96039043467973    2.61117828558140    0.82310033696380
O          -0.68753332370478    1.74522694178489   -1.05862803696501
H           0.24906989431619    1.39066369750031   -0.75105522985088
H          -1.10035522953407    2.65622097225890    1.31985938096239
O           0.77626265217250   -0.29806173463750    1.88917144822478
H           1.02346678794508   -1.22184682029752    1.64023148964480
H          -0.15758369350011   -0.21998386596487    1.61698823561036
O           0.43768190351714    2.49008599227233    1.86202684785545
H           0.60647184244468    1.60198359216420    2.21214763618082
H           1.08365376428269    2.62839527232215    1.16218805315538
O          -1.63139965703127   -1.10942720920311   -1.65776451632566
H          -2.25612120457254   -0.50196903419185   -2.06517032423876
H          -1.64980364399356   -0.87261798893578   -0.71610300535653
O           1.53017894014386    0.81109590668919   -0.37150647153819
H           1.54491602676952    0.06777280821323   -1.01048335195183
H           1.37357870214541    0.38344754142009    0.51365787833848
O           1.02451160633435   -1.23806748038079   -2.04593261909992
H           1.20789711656413   -1.11737472089794   -2.97887390937660
H           0.04429512803163   -1.22813134989985   -1.95641960358849
N           1.23218290887148   -2.66281156528060    0.66534344631244
H           0.39415618437293   -3.22719938419670    0.73331359279866
H           2.02507507761845   -3.25871496689102    0.86714218808897
H           1.31076481650190   -2.35674168625289   -0.29992670605913
