    26
        -50.44669164  Gyration_radius:  2.46444113955 Dipole_moment: 1.843
 S          -0.23380744079489    1.55017298224462   -1.64127375067134
O          -0.57407275717250    0.16259792303901   -1.40032965356345
O          -1.09520555067198    2.23687194191474   -2.53294411029895
O          -0.17864620828282    2.27180551377873   -0.25759451855084
O           1.22132777781751    1.64753095591029   -2.09017519789808
H           1.74374321270088    1.23997279720268   -1.31754496018585
H          -0.82883163043876    1.89636564614372    0.38818135822306
O           0.85773166182325    0.23028766591458    1.94647591316691
H           0.04709901160329    0.74184417685923    2.02236980293460
H           0.57081553769393   -0.71608682340173    1.87556471429188
O          -1.85405386948100    1.24583869957673    1.47568534900076
H          -2.12450430478034    0.37332422444643    1.11046541449657
H          -2.65262695579664    1.75610608375393    1.62192898020856
O          -2.34933580150101   -1.00396117305575    0.12985543920936
H          -3.10278028677914   -1.27657911066988   -0.39613693863026
H          -1.67601525121136   -0.66463731844761   -0.50388999025763
O           2.42938788708067    0.69506862154963   -0.07399140612434
H           3.03414579413625    1.36260163928209    0.25667532329257
H           1.79869224299603    0.50588535688856    0.68526712660119
O          -0.07706429741163   -2.19731589530795    1.44795005363401
H          -0.96709068300939   -1.99956699420041    1.13296846632209
H           0.46312668496641   -2.32929435423773    0.63521022750826
N           1.28294882611957   -2.05727574426835   -0.90348965692760
H           2.15330289233755   -1.57931541633729   -0.70186039710486
H           0.64819694846820   -1.35626041569707   -1.27729453145466
H           1.46351654959018   -2.73598098288669   -1.63207304723427
