    26
        -50.45476191  Gyration_radius:  2.47705462524 Dipole_moment: 2.131
 S          -0.98657466595724   -1.21658408877199   -0.80964626850698
O           0.46238588924251   -1.22402317033941   -0.86597287896233
O          -1.59495303365706   -2.34892910274630   -0.21138076431046
O          -1.42763555395763    0.05263754824365   -0.06669960032727
O          -1.53472498808217   -1.04509898163895   -2.23840432470248
H          -1.16476609966010   -0.20941363032481   -2.64819961704306
H          -0.77898999636404    0.85075432883441   -0.21535828694495
O           1.95782782971063    0.61550957806276   -1.96725748961700
H           1.50884213966396   -0.17936824160172   -1.59949884352849
H           2.89952974657318    0.47378709945500   -1.85845237949750
O          -0.49137035217758    1.16696076351540   -3.08469027215238
H          -0.69975468010907    1.85847610729916   -2.44615746519161
H           0.46906112288436    1.03854454864136   -3.03494617012810
O           1.21768760235526   -0.78606039981438    1.75273703283788
H           0.41377646837130   -1.13350544315370    2.20366321207354
H           1.10313483758797   -1.03339857113248    0.82410745561670
O           1.09987548117751    1.82851031411002    2.02170301141651
H           1.25232170479280    0.84755039818373    1.97255646572704
H           0.52325380052755    1.96884006949932    2.77353076934908
O           0.16879552539073    1.96784735562500   -0.40655295065302
H           0.94293048045627    1.63194212801045   -0.89790199840387
H           0.49703643927680    2.08023691690102    0.52623398484917
N          -1.20153274456219   -1.69541245917616    2.58058425788647
H          -1.90074002630711   -0.99922199089108    2.80839385076092
H          -1.30711330213983   -2.46148940933578    3.23466750493661
H          -1.42830363504630   -2.04909166744439    1.65294179452811
