    26
        -50.44647012  Gyration_radius:  2.4830222889 Dipole_moment: 5.858
 S          -0.65892352322931    1.00751896009805   -2.04951872960461
O          -1.65981190692712    0.64296548612124   -1.07734918003723
O          -1.02411097899544    1.90094589905891   -3.08324610918619
O           0.56316073165174    1.60288609679411   -1.26282517490207
O          -0.05186070416960   -0.28063026475137   -2.64200535393327
H          -0.20774529499099   -0.99390178313731   -1.93650565643922
H           0.38371029424746    1.66053476048100   -0.28042913838153
O          -1.41174114323450   -1.50703119918827    2.20721835560178
H          -1.48510632035585   -1.99579047376176    3.02739050643092
H          -0.46574838720717   -1.42971929314804    2.00672185309330
O           1.11385608432076   -0.85782413186976    1.18596832692199
H           1.82961214110850   -0.84306594923542    0.50373469501114
H           0.92057475926297    0.07615087850771    1.35545104657837
O          -2.23853728003111    1.01650496912279    1.51797288699620
H          -2.32844054050696    0.93347857686930    0.55283757183079
H          -2.13570619084279    0.10472036971119    1.84670872908589
O           0.20171669862916    1.77654573763866    1.29823689763583
H          -0.77063630125086    1.53620675576150    1.45672859031378
H           0.31133497303397    2.68437113077276    1.58514597934495
O          -0.53088155514790   -1.87207129051013   -0.72251904619489
H           0.07577009156319   -1.60165521725355    0.00224670977745
H          -1.39985699990266   -1.53815132371081   -0.47390297582541
N           2.65939036532377   -0.57032085929652   -0.99906527216608
H           2.43959505394293   -1.30602231087449   -1.65998805091309
H           3.66057604052917   -0.42220457116778   -1.02144133181191
H           2.20980989270384    0.27555905669075   -1.33756611883396
