    26
        -50.44834352  Gyration_radius:  2.46582937341 Dipole_moment: 8.508
 S          -2.18183604663842    0.60858934054110    0.52404369084982
O          -1.34774959292993    1.73933401372584    0.86690946974161
O          -3.53056035987112    0.63746619379415    0.95106510301445
O          -2.12193055147907    0.34409635045162   -0.98324615224097
O          -1.46361346761032   -0.66909949935767    1.09473368933446
H          -0.84398929326060   -0.34907015013788    1.82366853242835
H          -1.19845027540711    0.57508183065687   -1.39737676649228
O           0.98554452605647    2.59787607940238   -0.19180710482290
H           1.57008524934752    2.01321619776409    0.31101023399693
H           0.11559885039020    2.54173200812842    0.23984066782104
O           0.12836030657139    0.48777204671891    2.70701997121517
H           0.97175265332374    0.43594494716580    2.21868484421590
H          -0.30232303943779    1.30280286746688    2.40577071219774
O           1.60580784732990   -1.31709289916933   -1.06762518428960
H           2.17826983942989   -1.77254202827988   -1.68633958128958
H           0.74390193969891   -1.83791097270224   -1.02885520994279
O           0.14337553346137    0.84086666554406   -1.96357127955953
H           0.48837097593795    1.62063974861326   -1.45866209588048
H           0.72246224464423    0.09484859351140   -1.72246756274842
O           2.25632791770943    0.35023633214119    0.98757136653747
H           2.02765634017874   -0.28593107819834    0.28150827141379
H           3.15803770365880    0.16172324098598    1.25170246929578
N          -0.75427835881387   -2.48019826674873   -1.06638274134568
H          -1.14893618584438   -2.04244375263612   -0.23704430944020
H          -0.92335869842165   -3.47648714684942   -1.00388149854461
H          -1.27852604802297   -2.12145066252982   -1.85626952545959
