    26
        -50.44452782  Gyration_radius:  2.61086903451 Dipole_moment: 3.450
 S          -0.57395942213458   -0.44773168965196    2.51345186063010
O          -1.02184560830279   -0.98853081733899    1.24617801956644
O          -0.42503264806083   -1.38178334466563    3.56735298609810
O           0.77851215391543    0.29330798915545    2.25477998739692
O          -1.47903414653098    0.72816431089057    2.90250413184136
H          -1.61800242610092    1.22918105330036    2.04185745281169
H           1.47974335209484   -0.40431458667425    2.06933357745658
O          -0.90007582590053    1.85535972160656   -2.43592863163343
H          -1.59578449154731    2.02883457500699   -1.79422740039835
H          -0.07096729652545    2.02101616405747   -1.97115066600019
O          -1.59459785209769    1.51189581968460    0.45969860390632
H          -1.71730335749169    0.56360642645233    0.30796671539894
H          -0.65338249161776    1.68451359392720    0.21595174818099
O           0.86906171987913   -1.08103016599669   -0.63689354066962
H           0.09816257267384   -1.16813005027619   -0.04555782293512
H           0.50151139105297   -1.13572239901882   -1.56333653511979
O           2.28737219228978   -1.65786411929141    1.55176511809954
H           1.89033745840559   -2.43573074215341    1.95105974672109
H           1.99292383707415   -1.62367797969523    0.61890388426631
O           0.98152218460582    1.57070042431169   -0.28846051966895
H           1.05989939841945    0.60452465281763   -0.48360315196982
H           1.47634560512272    1.71110424981323    0.52202107299210
N          -0.30644730190215   -0.94307168748438   -3.02289662094057
H          -0.60164292680577    0.03389151376119   -2.98813289503151
H          -1.13383785544074   -1.51211834472582   -3.15030195960337
H           0.27652179495224   -1.05639457777121   -3.84233517160399
