    26
        -50.44866813  Gyration_radius:  2.53282333921 Dipole_moment: 3.808
 S          -0.51339904142699    0.45969985709763   -1.48007517852781
O          -1.67503780663517   -0.02098356936481   -0.77636968033387
O          -0.62376285574636    1.76530068640962   -2.04364751431678
O           0.68114299063386    0.47085850440444   -0.45022342573052
O          -0.06480345997536   -0.56045379525810   -2.50039692357230
H          -0.00119503031847   -1.50487229179415   -2.00378287772282
H           0.73906339250919    1.45445916953472   -0.13720441773633
O          -0.07385310175561   -1.61399646507498    1.25369636062123
H           0.31998312187487   -0.83708560095105    0.83405577228799
H          -0.89964196463112   -1.30199415204470    1.64369819888534
O          -1.28900749764978    2.61462800714397    2.09789446196101
H          -0.91455001781477    2.65386063905748    2.97958869937309
H          -1.68749558330369    1.72311290232134    2.00411650930302
O          -2.30125459153253    0.13261034559268    1.73734869765384
H          -3.25103822643868    0.03464830798886    1.82570348469335
H          -2.11655703803130    0.08331633557319    0.76810003219608
O           0.50794537795491    2.89036973329411    0.14634173358934
H          -0.16886153619498    2.90989858737597    0.86529761057799
H           0.03683863243562    3.04503394624383   -0.68590098551882
O           0.23626039052388   -2.66244426008470   -1.21580182951863
H           1.22324669870468   -2.59447491918384   -1.15309198600490
H          -0.07401401931226   -2.46235205822269   -0.30658845972623
N           2.77171247786554   -1.83689030533313   -0.89750503228569
H           3.26878641329291   -2.10927237856848   -0.05909148012157
H           2.44632154669487   -0.88377755862936   -0.77471844629542
H           3.42317071821658   -1.84919967760571   -1.67144332372621
