    26
        -50.44242829  Gyration_radius:  2.56092714927 Dipole_moment: 3.053
 S          -0.98862687211906    2.06574282301644    0.47677689580658
O          -1.53578763812158    1.05871359733297    1.35296091606710
O          -0.79169535637090    3.35471330204218    1.03048715089470
O           0.36468478149496    1.49562290638713   -0.07597173388958
O          -1.82372309204223    2.15363907821967   -0.80712372823920
H          -1.86381227828247    1.20652903356423   -1.16386294833052
H           0.73981630803678    0.88379393496007    0.61671913079030
O          -1.86976165043528   -0.29890063083997   -1.50860496838416
H          -1.15849390697487   -0.78618766940521   -1.03273150007065
H          -2.68105012782670   -0.63130942543992   -1.10565842827274
O          -2.90188493371549   -1.17851175684320    0.97729835041317
H          -2.45463343497661   -0.32554874952645    1.16735285611673
H          -3.49767276245690   -1.33424253071348    1.71075395648555
O          -0.32181514246257   -1.76510883043204    0.12729534464890
H           0.24674370493582   -1.30209862703275    0.75759429887532
H          -1.16836690978844   -1.90111732963755    0.58035738394712
O           3.52829918251190   -0.23740439626385    0.12056256733729
H           2.97078439230319   -0.46561376677900   -0.67578646759886
H           3.88435940663199    0.63658838013089   -0.04943446937336
O           1.42350930414275   -0.12551389312374    1.64669988563449
H           2.29759332873668   -0.24059579316997    1.17255917814199
H           1.60269605761732    0.26576661439942    2.50312881409186
N           1.73861807907812   -0.61684629318832   -1.81982309544126
H           1.90157000239879   -0.77375245683416   -2.80614628711978
H           1.19891994936226    0.23682780399953   -1.71993045808685
H           1.15972958832672   -1.37518533482718   -1.47547264443173
