    26
        -50.46135645  Gyration_radius:  2.48820796314 Dipole_moment: 3.160
 S          -0.35819542146261    0.29921526822409   -0.91721107952207
O          -0.07424791522293   -1.09051355750512   -0.57812759990921
O          -1.63299360434565    0.71619603677445   -0.34526528671980
O           0.73184798015910    1.17167943968961   -0.44053870780196
O          -0.45138278548720    0.44660535580266   -2.43883593318683
H           0.51345671079425    0.55932107111769   -2.73316724642276
H           0.74116659305359    1.29295894793179    0.99868163514086
O          -1.82359857795577    2.13697106126608    1.88761605187901
H          -2.42946308325938    1.54834077901174    2.35108223231445
H          -1.85872824121758    1.84934181571935    0.94992626502375
O           0.55181481443451    1.24310359997142    2.03206031227104
H           0.34984684921102    0.20603264636895    2.17140576241347
H          -0.35818128711284    1.71528157412677    2.12473683848924
O          -0.10709307369968   -1.16404990233117    2.03081261342994
H          -1.07846754240742   -1.12736117098345    2.15269814468132
H           0.00180021207723   -1.29925183155347    1.05752773271018
O           2.04644042111955    0.71460557002037   -2.77591851848543
H           2.06098713762563    1.19343137824033   -1.93679520548980
H           2.33349722362978   -0.21180107955952   -2.55579014975304
O          -2.71572075832353   -0.65306355117861    1.64339076492877
H          -3.31755067457630   -1.34448864567252    1.36516089637578
H          -2.40470535168824   -0.21219661727132    0.82027722047947
N           2.38297957668445   -1.76618366796161   -1.85122906589700
H           1.49376377527819   -1.68244316343229   -1.35605272212257
H           3.09564977960372   -1.99221833540818   -1.16881711255781
H           2.30707726341067   -2.54951303186604   -2.48762782154514
