    26
        -50.45006502  Gyration_radius:  2.60367761779 Dipole_moment: 5.718
 S          -0.32679762958530    1.64852575038181   -1.76840071444384
O          -1.19830315194432    2.17324236237477   -0.73255808165608
O           0.06695911101016    2.56005546633108   -2.77546084004064
O           0.91777341309679    1.05086466181450   -1.03157755063678
O          -0.95698765502788    0.40625659482389   -2.39654775756917
H          -1.27915694068945   -0.26445017399324   -1.68129768906867
H           1.05946082081055    1.67580221308198   -0.22032565723463
O          -0.07098773194689    0.54609676874773    2.41851901073581
H          -1.00350006814793    0.58629599393813    2.15335230055186
H           0.30131890344990   -0.22005122812528    1.95439423839968
O          -2.49360448129426    0.81198157763772    1.07163390145974
H          -2.05083055614569    1.38562385980770    0.39876695117765
H          -3.34856743199066    1.20747217632872    1.24589248070062
O          -1.66015112684375   -1.18739004271857   -0.56120115543190
H          -0.79741766744676   -1.38446553617827   -0.12866478103256
H          -2.14685225999526   -0.63147409250912    0.07442203889854
O           0.92139011666013    2.52531524884449    0.99257797872833
H           0.12195727846978    2.99583455584573    0.72849707135616
H           0.63178881056993    1.85417457212303    1.67082031745881
O           0.78648663315532   -1.25799815360649    0.48332439991180
H           1.36223284853681   -2.01901447904954    0.23927682470219
H           1.05127618860123   -0.52470937813383   -0.09415881670564
N           2.37531426391088   -3.28726506329485   -0.40493561967215
H           1.79859134342454   -4.03064340374427   -0.77911518662202
H           2.98362764022131   -3.68619040547227    0.29914634691478
H           2.95497933914576   -2.93388983525296   -1.15638001090288
