    26
        -50.45979811  Gyration_radius:  2.51827504194 Dipole_moment: 4.668
 S          -0.43083343644190    0.00255060833850   -0.65553199720885
O           0.63814787220111   -0.55105100021866    0.20022022201606
O          -1.54151374041038   -0.90396209073701   -0.78785629623950
O          -0.90417978161835    1.30956794613630    0.03276288796548
O           0.13322590213185    0.42659863737588   -1.93551142868718
H           1.41997142721311    0.99756747279069   -1.88148805402120
H          -1.49363936005238    1.05898286193165    0.84479463871474
O           2.41215862137480    1.30543627695470   -1.63909951495698
H           2.28742970505829    1.68934003337481   -0.70560686578851
H           2.87337997788378    0.35072881861632   -1.45232147362244
O          -1.06588966155242   -1.78410920656694    1.85151292017783
H          -0.33524663236638   -1.42456104393660    1.31606460491020
H          -1.64407785461128   -2.21932337516592    1.21808443684164
O          -4.00148731384546   -0.33808381153570    0.05592960049084
H          -3.15752798712259   -0.63681303555991   -0.34214420506055
H          -4.43118708304520    0.20512966648761   -0.60611968735122
O          -2.33407942635306    0.56221571989328    1.96070304096908
H          -3.14615068666320    0.31740894316306    1.47123963245445
H          -1.90258184866157   -0.29615554516784    2.17655839750965
O           1.73973383144439    1.76614898664267    0.77689414599054
H           1.35930465563844    0.85878020940990    0.76106618987520
H           0.98029303174999    2.34990960263788    0.86582307965238
N           3.14889590444653   -1.02224144804817   -0.98923635153043
H           3.19963178288825   -1.72696366474982   -1.71290509785561
H           2.27313113855122   -1.14608165501902   -0.47301864238449
H           3.92309099217703   -1.15101990704256   -0.35081416292399
