    26
        -50.44732439  Gyration_radius:  2.51906559404 Dipole_moment: 5.542
 S          -1.14675385256630    0.79232692310758   -1.36616228369060
O          -0.20818254863537    1.80848347205017   -0.94608632706506
O          -1.50795603358888    0.82757131427092   -2.74166366727534
O          -0.49461163990224   -0.60093129774094   -1.04522913879970
O          -2.35634318250025    0.78850436914446   -0.45054422779123
H          -1.99262622927308    0.86312156147474    0.53637548309578
H           0.29481795658782   -0.65136720844731   -1.71242108633314
O          -2.18294408247256   -1.61001894643476    2.54584502308142
H          -1.38472935184889   -2.00215888686874    2.12047941180862
H          -2.93741927074917   -1.90386153386642    2.03315911824404
O          -1.41020568538190    0.82986851101357    1.85902017873264
H          -1.77425333030749   -0.00368592305770    2.25096568489382
H          -0.44818797788211    0.68293333121318    1.78638899080620
O           0.01822438598303   -2.20909302621680    1.15512555925093
H          -0.24192273158307   -1.84546969756465    0.29651420402678
H           0.62831255396331   -1.55057877468272    1.51791287666695
O           2.28919551675049    1.39716551558447   -0.43453872500159
H           2.68867573029427    2.25592922803730   -0.28178979783310
H           1.34406189067901    1.58435691049420   -0.66687082164856
O           1.29827160247935    0.20279289132158    1.77848535630800
H           1.79838808364443    0.52689756935601    2.52933336559653
H           1.72325848191737    0.56311420229175    0.96965207935175
N           1.35142319502236   -0.29904157652428   -2.76463056518895
H           2.07139560302132    0.22790171547056   -2.28272630131306
H           0.79953107998838    0.32866245597855   -3.33734352768085
H           1.78057982635005   -1.00342308941539   -3.34925086223977
