    26
        -50.45230129  Gyration_radius:  2.46676189119 Dipole_moment: 4.292
 S           2.10195583114191   -0.88276483068800    0.20804811407460
O           1.67541044156923    0.48192025412851   -0.06118983657260
O           2.81281108790057   -1.50904732763104   -0.84545123350099
O           2.94996143304280   -0.86239337310705    1.50116949045686
O           0.86969734803142   -1.71135517491778    0.56459768216557
H           0.04499024878638   -1.17991436927828    0.97878283078242
H           2.40288532870520   -0.37488372774088    2.16661275736888
O           1.15938710592229    0.42229750213234    2.93176592898402
H           0.33160161270296   -0.07460902343510    2.90995902836702
H           0.96996404608104    1.27333859154537    2.52206482138392
O          -1.38058980604303    1.75486508640919   -1.91108822930440
H          -1.09540846625608    2.46985949262954   -2.48232494534449
H          -0.82823561677823    0.98831198542747   -2.13511164176889
O           0.35749904647082   -0.41472290372854   -2.19968078221224
H           0.93587992185249   -1.05407647285515   -2.62126556852378
H           0.88923369646074   -0.04233381973026   -1.47370090699964
O          -0.41968742668077    1.94062359565735    0.67330880346840
H          -0.92579650762838    2.03742870564246   -0.15395120815129
H           0.44665861518162    1.59925810602286    0.38450513660818
O          -1.10299714030251   -0.47485326944133    1.44757032706545
H          -0.94546333384453    0.48513641089345    1.23473192536820
H          -1.72393025817897   -0.77076911217236    0.72069170116061
N          -2.33169231222599   -1.01258597811611   -0.82216049293175
H          -2.76365126013056   -0.15944548455349   -1.15780391559759
H          -2.95315800574158   -1.78487146361994   -1.02302601628747
H          -1.47732560998698   -1.14441340943098   -1.35705376999582
