    26
        -50.45486953  Gyration_radius:  2.47936034541 Dipole_moment: 6.180
 S          -0.12235016564571   -0.62044980449021   -2.28560442622608
O           0.92093530981627    0.39541872075539   -2.00746231393338
O           0.05535949084755   -1.30845944324093   -3.51516748577233
O          -0.21073140654984   -1.52091753811822   -1.10785055122960
O          -1.48635271385019    0.14335472505410   -2.33234878246048
H          -1.62180642789666    0.57092227363795   -1.45885172564026
H           1.12402144180201   -1.43002362860677   -0.33025235552092
O           1.45468657135976    0.72879090099696    1.91380175619375
H           0.48503588213242    0.49149601452127    2.06561128618882
H           1.81935220113910    0.91050108516457    2.78027044301549
O          -1.83455087920042    1.50546554495583   -0.06362126446748
H          -2.48367133452047    2.18555076747862   -0.25003064613474
H          -0.93414803497973    1.94835529126704   -0.10519458180440
O          -1.03858481333193    0.12659428228945    2.19997822437127
H          -1.16888200801679   -0.81364355345974    1.95564868277312
H          -1.48148033640469    0.63023270257104    1.49774786607799
O           0.60035803290635    2.35222126260423   -0.24994908084634
H           0.78665924296506    1.75418496897434   -1.00684875295789
H           1.04498941178149    1.96300018571368    0.51799953904784
O          -1.39956003005932   -2.31166019606061    1.12301388704667
H          -1.01069830792552   -2.08709863222926    0.25288433495874
H          -2.28041542060807   -2.64215828196079    0.94220375689020
N           2.03449324401636   -0.89865066198265   -0.13986882319569
H           2.86318175776109   -1.47942617946630   -0.18544983498485
H           1.95807859115850   -0.36243989658287    0.75194296681421
H           1.92608070130172   -0.23116090978613   -0.96260208820201
