    26
        -50.46448901  Gyration_radius:  2.54367368547 Dipole_moment: 7.073
 S          -1.19386378502521   -0.36887602925054   -0.32578179978823
O          -0.76647240027542    0.19461342408738    0.96590299601186
O          -0.90931737876015    0.59371177595600   -1.39704154367868
O          -0.54213622736246   -1.63377067743833   -0.58170589574647
O          -2.72615312052920   -0.56083486205806   -0.27793464569203
H          -2.87387972959817   -1.49831366241449    0.05414633240895
H           1.84703690881263   -0.17635142245147   -0.59300081397829
O           1.79518682820334   -0.29968108224080    1.04740867463744
H           2.19286428506973    0.43963457227197    1.51348155947920
H           0.81663086017479   -0.16957736687221    1.10392905140397
O          -0.14194342336007    2.74979821066698   -0.05279083646588
H          -0.56032043037607    2.10237700926372   -0.65638899592935
H          -0.29621244130057    2.36884969808609    0.81749438580126
O          -2.55834321353818   -2.97715758127022    0.56540790365297
H          -2.23246950690405   -2.78724656519949    1.46875170939998
H          -1.75846251572672   -2.96860718328630    0.01514970254998
O           2.23895659367224    2.76140027682168   -1.20600527883121
H           2.22016007467977    3.45832959490461   -1.86363124522557
H           1.39811824177938    2.85769732052151   -0.68975247399653
O          -1.08966613856511   -1.92749927503328    2.57195467528092
H          -1.04138508565512   -1.07553206859934    2.09721054679208
H          -0.20922220680900   -2.30572181961655    2.51449108844131
N           1.66996169644796    0.19520418039804   -1.56523659043878
H           2.05357664495703   -0.41906329518020   -2.27486499146541
H           2.05384489620778    1.17595955981240   -1.59923257856747
H           0.61351057359875    0.27065726823906   -1.65196095607753
