    26
        -50.44964923  Gyration_radius:  2.52520393131 Dipole_moment: 5.000
 S           0.57133546927620   -0.15650117726797    1.77230451226030
O          -0.47413685480816   -1.03397760244218    1.26826872236512
O           1.55735901886488   -0.79046534316412    2.56648674097179
O           1.21124902517397    0.54323355701645    0.53312010045051
O          -0.06096405578707    1.01926882385291    2.49568287712687
H          -0.72832992566173    1.49069464669499    1.84399285579419
H           1.57543651973070   -0.17698519518409   -0.08630076701755
O          -1.94154648037232   -0.14838436011911   -0.68039678654566
H          -1.40683734896270   -0.52341449890870    0.06310304827825
H          -2.81887847265765   -0.52676366140675   -0.59233196004854
O           1.99835704869175   -1.23400269472828   -1.08592624761430
H           1.14632794257973   -1.51439553880371   -1.54228584971245
H           2.58012611528175   -0.90611809639873   -1.77431560275704
O          -0.28686356353123   -1.90026414172178   -2.11249300158266
H          -0.89896806484489   -1.19413656330591   -1.84867691854410
H          -0.45547744869628   -2.63295432072674   -1.48404365641103
O          -0.45752544217782   -3.46996041353558    0.07822246110407
H           0.36195018872602   -3.90683033125926    0.31684857999854
H          -0.50663012686467   -2.67460363604559    0.63818728312887
O          -1.54773878220085    2.12222509550764    0.80285581970394
H          -0.87826727982519    2.69448122538501    0.34789122794169
H          -1.78294799970882    1.42476603579290    0.16115633526774
N           0.55525095353744    3.33365421815874   -0.34950465594584
H           0.62071960164725    3.53052433187516   -1.33975070243422
H           1.11863955250858    2.51353233431028   -0.14728944783781
H           0.94836042008436    4.11737733642777    0.15519502206611
