    26
        -50.44406838  Gyration_radius:  2.49846335312 Dipole_moment: 8.378
 S           2.41025001284707   -0.63628095343608   -0.46421657935621
O           2.24627081997830    0.63272387076471    0.19749270329409
O           3.52174899382529   -1.42585910879647   -0.07275285458519
O           1.07412804640037   -1.45051848737632   -0.21659702687903
O           2.36321513857040   -0.45377525313902   -1.97793691070551
H           1.55614197017211    0.16237581236580   -2.13479183763741
H           0.72848611381344   -1.25439328446895    0.69090017321369
O          -1.11419882120826    1.94176149958806    0.07352152630975
H          -1.73211566108084    2.51408347207912   -0.38361779453077
H          -1.59502104583553    1.12052059235653    0.29821890405076
O          -2.32068203392452   -0.33946896871714    1.00152054493477
H          -1.50843459535010   -0.69480704826163    1.40356754973979
H          -2.93380941266734   -0.18711548576768    1.72327370587309
O           0.10905486187872   -0.87853756316908    2.16081719702047
H           0.62775380941224   -1.32310288155370    2.83319664340204
H           0.33687490327318    0.10827220490664    2.22922140278246
O           0.26546329610054    0.93776727961975   -2.16753187965087
H          -0.41645447962670    0.21491354093240   -2.16405577952417
H           0.14307440833513    1.40397625790703   -1.32566539623804
O           0.72643324375660    1.61545417423873    2.11563892757123
H           0.05975177346141    2.00336675708409    1.52823061638837
H           1.48155182530612    1.43853095451316    1.52164714547516
N          -1.41348931855226   -1.12692724255445   -1.81657996303094
H          -2.05905754661819   -0.97494441238688   -1.04993422603472
H          -0.66058876193278   -1.70751613351469   -1.46155566041319
H          -1.89634754033142   -1.64049960321260   -2.54201113146731
