    26
        -50.45230162  Gyration_radius:  2.46687560087 Dipole_moment: 4.287
 S          -1.56011686744146    1.20699292051319   -1.16165962039676
O          -1.72129739346680    0.28132975160869   -0.05091444923943
O          -2.14741095976355    0.78986622281594   -2.38171109059800
O          -2.13316664620127    2.57371884973022   -0.72002998425117
O          -0.06769214567165    1.45921165794775   -1.36586311662461
H           0.55327137693034    1.33562726826010   -0.51034481982578
H          -1.70811248455513    2.76792957897183    0.15272590444785
O          -0.23038984668448   -0.35905046129800    2.05332341898535
H          -0.94215813595720   -0.19017268808963    1.40897185686111
H           0.06445247723584   -1.26582070751417    1.85122885755441
O          -0.74777746652728    2.70025091808211    1.50829007244918
H           0.19030521287210    2.61954426294235    1.29347977400057
H          -0.96068242675202    1.94112941114600    2.06177965409972
O          -0.52539220226678   -1.59617063983648   -1.52114853798866
H          -1.03344067229169   -0.95955374302719   -0.98731337130836
H          -0.88646374138102   -1.51418265746151   -2.40660445895114
O           1.41482557440420    1.08391679032411    0.59990592620690
H           1.97805488632182    0.38922430030433    0.15112087929583
H           0.88012379057277    0.55559750424420    1.25308185254836
O           0.30516117426059   -2.79407948493665    0.86165412717635
H           0.04892902046722   -2.49375145621529   -0.02557703897106
H          -0.31251068911818   -3.48673272928884    1.10159319391852
N           2.37779903553607   -1.02199305372485   -0.66077792707949
H           2.40114394429829   -1.79757968232132   -0.00888655715768
H           3.20178681803439   -1.07202827857076   -1.24518396361401
H           1.56075835711072   -1.15322385462973   -1.25114059155051
