    26
        -50.45601906  Gyration_radius:  2.44955989313 Dipole_moment: 7.017
 S           1.31297479707094   -1.23925885156959    0.90358974850937
O          -0.05575630529948   -1.66538826408009    1.13061757513592
O           2.04468306504883   -2.12785038075893    0.02637997858958
O           1.35980123107962    0.14213484040415    0.36137594035628
O           2.04284821585101   -1.16957120325243    2.28140270955860
H           1.47273245477609   -0.57127299770637    2.80048121094580
H           1.72081927435766   -0.02205168398089   -1.09211760433455
O          -0.15944255581928    0.19594985120970    3.02459288796581
H          -0.42061798012657   -0.58560430374907    2.51128189567809
H          -0.59589365559989    0.93230493255800    2.57119763791377
O          -0.75186474576914    0.21271722343980   -2.52100078593637
H          -1.22233392483465    0.59767971269202   -3.26151892828341
H          -0.59469509136759    0.96032830313750   -1.86604995516745
O          -2.00745711901793    1.54273450372255    1.27930781590310
H          -2.14339646262400    0.69380220994490    0.78611627016271
H          -2.84653316405048    1.75100997966605    1.69142801739347
O          -0.22082050722502    2.01802355017041   -0.72579330934727
H           0.42728742681630    1.48535300158653   -0.22825659611598
H          -0.94855791699671    2.12994600516433   -0.09190265085887
O          -2.15881891623557   -0.68333448021554   -0.16149461570029
H          -1.45579829974599   -1.16886384327693    0.31547827673781
H          -1.81140146136480   -0.54088005089634   -1.05145742785387
N           1.76312471264692   -0.58395437209759   -2.01847473174351
H           2.51972500978249   -0.31260564963129   -2.63661158051129
H           0.82181575718210   -0.46956160917498   -2.45201598313663
H           1.90757615168383   -1.52178641351129   -1.57655580592212
