    26
        -50.44018757  Gyration_radius:  2.57439238707 Dipole_moment: 6.286
 S          -0.53704982228027   -2.53010339379006    1.07124138173754
O          -1.69694571549803   -1.68655171655339    0.94522149230790
O          -0.74000076316563   -3.91988474495373    1.24447845886307
O           0.35521126277401   -2.28493644196757   -0.20151752775908
O           0.37255979270886   -1.99049304702926    2.19043897003439
H           0.25788172648366   -0.98497843835286    2.17110690189613
H          -0.12503411337985   -1.71659546611871   -0.89071232095650
O          -0.54256910324683   -0.60736462139983   -1.90401642268946
H          -1.20709481887407   -0.09224085913171   -1.39408068970836
H           0.26342032931152   -0.08076522553404   -1.93741134692000
O          -2.30624421280870    0.56829482787386   -0.25966079182608
H          -3.23411010275306    0.42668400981865   -0.45683887010323
H          -2.06356312715769   -0.15624210564748    0.35995697773278
O           0.07720380461854    0.52603915180006    2.07933802388570
H           0.74901160812663    0.94431479766369    1.45950390372071
H           0.21571057412914    0.93083406327086    2.93715435954994
O           2.37138823617130   -0.61143008545714   -1.10607590979227
H           1.84644693940969   -1.32330457825730   -0.70603257319643
H           3.22963323426578   -0.98251070973040   -1.31504137344507
O           1.74777777944909    1.59908271630038    0.41242917910200
H           1.09836727129252    2.07217386710165   -0.15743662909697
H           2.09985266097434    0.87459913609595   -0.12975011422079
N          -0.31004524296605    2.66363345130633   -1.02216565687066
H          -1.06299566273580    2.10221514508530   -0.63181228536180
H          -0.39665722529554    2.63942073867244   -2.03097083655898
H          -0.46215531953558    3.62010953899184   -0.72734631033904
