    26
        -50.45249122  Gyration_radius:  2.51828421109 Dipole_moment: 2.073
 S          -0.31185941987866   -0.99159177383079   -1.05749751202450
O           0.34929374254335    0.29441275767072   -1.07039394922437
O           0.55121033343044   -2.12412570232366   -1.11352015107792
O          -1.21922514397095   -1.05182228255165    0.18965537871776
O          -1.32471942234979   -1.06311042568197   -2.20289888293476
H          -1.83416918003145   -0.18852766165287   -2.21474879580043
H          -0.68209303251945   -0.77838599284630    1.05792531789130
O           0.01532763028303   -0.23755737001890    2.18795258323594
H           0.05575556481866    0.71076449476738    1.98499951221499
H           0.95931891247491   -0.55756451501839    2.21087120381533
O          -2.77390726250471    1.29525281015445    0.51757575418969
H          -1.94622711992608    1.75915111190437    0.73930704416873
H          -2.60419233350018    0.36676163855464    0.71844824850009
O          -2.67853704067007    1.09881250927033   -2.09670923936103
H          -3.56598215968160    0.95099471646043   -2.43058485876662
H          -2.76822669220220    1.26848837767100   -1.11905037282272
O          -0.16520378568634    2.09993303405371    0.75175114830090
H           0.22827986622663    2.94421108244464    0.52731953906903
H           0.06002949761018    1.48104347909773    0.01627089868065
O           2.49311328085582   -1.07952549007752    2.10080320147779
H           2.77131848212423   -0.92956975142976    1.15420015155176
H           2.53223225896013   -2.02720671940412    2.23957769773325
N           3.00538626693267   -0.81909706285711   -0.49542523426972
H           2.26932719741117   -1.45266605631408   -0.80419257821945
H           3.86010730175845   -1.06930112499823   -0.97736447703452
H           2.72364228754252    0.10022591697762   -0.81427161800022
