    26
        -50.45521634  Gyration_radius:  2.43494328522 Dipole_moment: 2.510
 S          -1.33743514073223    0.68393785117334   -1.09999871546488
O          -0.03851472016939    1.31811638174111   -1.16618001379797
O          -1.81181702254233    0.12747391675796   -2.32219591552493
O          -1.28745496030773   -0.39254009807782    0.00168218295159
O          -2.36429155004646    1.67162415742922   -0.52424018915166
H          -1.86634656372139    2.14771781320554    0.20452159854815
H          -0.43586482606401   -1.03762332906301   -0.11009938877230
O          -0.48735206032398   -1.56224738300164    2.40770367576146
H           0.07366365802550   -2.07685670182907    1.81515423478921
H          -1.25303493792157   -1.31150323983771    1.87832521485227
O          -0.64310692325306    2.69187021243314    1.08008638817652
H          -0.06440259885130    2.63919880986290    0.30704752253455
H          -0.26691059191232    2.06168223496315    1.72517504092622
O           0.67379252906762    0.82774304900433    2.59385431913032
H           0.93981253625595    0.99947286916204    3.49838899741200
H           0.23550910020979   -0.05851601654061    2.59174643014483
O           2.08117257075973    0.37302525092422    0.22698689012522
H           1.78713570551529    0.62456460039991    1.11690231008546
H           1.47605839157714    0.82798930039840   -0.38546201339169
O           0.73148681633324   -1.81536269479986   -0.23058033046454
H           0.73502146562757   -1.89547913590504   -1.22902649464597
H           1.41536103216927   -1.11929606045400   -0.03029088081589
N           0.49283853168486   -1.53321987530389   -2.83735927562810
H          -0.36983388457430   -0.98974527603357   -2.81209449863652
H           0.36709712379476   -2.28137667344612   -3.50807235409369
H           1.21741632940376   -0.92064996318254   -3.19197472504990
