    26
        -50.44654998  Gyration_radius:  2.48635318449 Dipole_moment: 5.495
 S          -0.27938726927257    1.20817431937177   -1.83357685850380
O          -0.71711920018193    1.69946571071092   -0.54493614165862
O          -0.47061267944357    2.05733000859335   -2.94635287655885
O           1.21973631941737    0.82307732210874   -1.71140585205723
O          -0.97212156661966   -0.14637682205653   -2.10823297577241
H          -0.85360074750227   -0.75641447485278   -1.32613948305852
H           1.54120210632874    0.78219388687225   -0.75455873635750
O           0.14443561077096    1.43514594209328    2.02819577676531
H          -0.27840254735161    1.80578594906850    1.23830297289326
H          -0.41486316515387    0.65400609156764    2.25923768388222
O          -3.07424576316246    0.81193579537399    0.41724512064609
H          -2.26385079253597    1.15883828255935   -0.00001178988925
H          -3.63752988446273    1.56868347644609    0.58466727830036
O          -1.50199843854089   -0.65261015823954    2.12071493663756
H          -1.11253305943367   -1.19674702408888    1.42217424202982
H          -2.24548641893900   -0.19996003820922    1.68459120192822
O           2.18196914086609    0.71083024300630    0.67001437975682
H           2.80601771254428    1.43373715616358    0.75849900701095
H           1.40951568063608    0.94165204293345    1.29053857242316
O          -0.50743049213147   -1.85665252185257   -0.22173762018812
H          -0.90675479388194   -2.68476348826538   -0.49499404449163
H           0.49403073594422   -1.96071001979273   -0.30534480892664
N           2.09714401034134   -1.97062655557652   -0.52552653833787
H           2.29469833148079   -1.67383564866443   -1.47365153066374
H           2.66699929882316   -2.78026698897830   -0.31619103127458
H           2.38018786147163   -1.21189250626654    0.08847909547354
