    26
        -50.45124426  Gyration_radius:  2.47181904832 Dipole_moment: 4.074
 S          -1.89543061046532    0.94151796792961   -1.15998528048666
O          -1.25355960879158   -0.35878265648314   -1.18915517509616
O          -3.11926204021618    1.04316569144386   -1.86107157633478
O          -2.03859304939773    1.37160254046570    0.31519219093931
O          -0.88948763540708    1.97919879681523   -1.71504474951830
H          -0.20370859082076    2.10263040188726   -1.00251629498798
H          -1.79097116317967    0.62678255550609    0.98142657609848
O           1.31715591099808    0.26747536453441    1.91950738941092
H           2.00344116640805    0.36408211574226    2.58052578190210
H           1.58490728026365   -0.52424002179779    1.34565906712595
O          -1.30084570659028   -0.40016105475665    1.96043385960900
H          -1.23481858896605   -1.25754987044312    1.50011813880367
H          -0.37620402039374   -0.13074372082368    2.12630617623408
O          -0.83662058390716   -2.50143414167891    0.26950168572496
H          -1.39984083431831   -3.22815446688543   -0.00004773290757
H          -0.98862233477831   -1.77626903039829   -0.37463284691706
O           0.71531684190132    2.30889060253770    0.28918020543235
H           0.14612950526070    2.84416978506651    0.84756770119246
H           0.97607995720479    1.53256655057413    0.83636567859611
O           1.86557885219563   -1.71523918672695    0.38686671418747
H           1.88866890636064   -1.22814336960856   -0.47599705415192
H           1.03534059510313   -2.21375806465249    0.37698942519944
N           1.56308383967689   -0.17858497512371   -1.79971616718138
H           1.83466347987354    0.78641178755503   -1.65522641146395
H           0.54558140337532   -0.21415717231992   -1.76896010323144
H           1.85201702861017   -0.44127643835836   -2.73328721817821
