    26
        -50.47297962  Gyration_radius:  2.50357617687 Dipole_moment: 2.753
 S          -0.78200175719916   -0.37142783152866   -0.67808137679247
O          -1.20794272265291    0.69101634544525    0.23191936737040
O           0.25337665537790    0.09265350623204   -1.58891610018861
O          -0.32594776510412   -1.54528683631111    0.07583469684493
O          -1.98386291852738   -0.77807749042067   -1.55490944474162
H          -2.73879497903874   -1.03811351462425   -0.95550128967766
H           1.10056244957611   -1.20296980913708    0.59706931369196
O          -3.89614305654354   -1.30251118904818    0.11915037623866
H          -3.37059983970025   -1.30458861482761    0.95923155581828
H          -4.48105664242131   -0.54326542086444    0.16651223632183
O           1.52676381077228    2.38071133353443   -1.23105343606180
H           1.05905832544485    3.12184953208014   -1.61790847257694
H           0.98138403910567    1.58398874410354   -1.42451487190898
O           1.01096939919002    1.64713362796220    1.32870031595279
H           1.35310003791509    2.13982091037334    0.55868454122276
H           0.10047454714132    1.39761090187890    1.05909288461086
O          -2.10511495520214   -1.03360134863978    2.03188084258993
H          -1.46533569911736   -1.65035674207481    1.64851630847235
H          -1.85517283018319   -0.18476297857984    1.62142594472501
O           2.92340599633523   -0.21065701975558   -1.56357088802123
H           3.11334940425870    0.73178676296274   -1.62501109803797
H           1.98773082271881   -0.28774023657047   -1.83242448897631
N           2.00828012281887   -0.72536983182439    0.87856042775292
H           2.50893578617100   -1.25119852098059    1.58637748042729
H           1.71613062008996    0.24935721653040    1.21571505319218
H           2.56845114874247   -0.60600149591953   -0.00677985823768
