    26
        -50.45017874  Gyration_radius:  2.53805176957 Dipole_moment: 5.723
 S          -0.48622040102073    0.39250016026181   -2.09132040411843
O          -1.08626094156650   -0.19243875047621   -0.90816013810056
O          -0.52601061350872   -0.40370555730619   -3.26628885845795
O          -1.16846084225252    1.75686211026380   -2.34183694963525
O           0.97370251206147    0.76149010985512   -1.78892109959595
H           1.24995554427372    0.73075712276974   -0.79018799414612
H          -1.53900768860088    2.06670163869845   -1.46730984256919
O           1.60155496469226    0.57786458354555    0.63685409823519
H           1.25768301751632   -0.33697674327373    0.78098792385492
H           1.01767201426164    1.16845595887167    1.14551000852364
O          -2.08674752303221    2.06961764059928    0.05995046898238
H          -2.16073288962463    1.10625830669603   -0.00702566371414
H          -1.44543005098059    2.21446036545397    0.77709999470558
O          -0.52169435352138   -0.66804604797181    3.05870037767670
H          -0.31997235851539   -1.20601478792607    2.27356311585433
H           0.02269396874638   -1.01399360756793    3.76787252446159
O          -0.29182372692097    1.84732453256144    2.15623679039464
H          -0.49731804901218    0.96323214686578    2.53864067372231
H          -0.22624538985436    2.45959052618691    2.89051477491093
O           0.32165325933408   -1.75695023935124    0.68067851368032
H          -0.37109313565257   -1.28825959608939    0.17358141931429
H           0.80442702531243   -2.22690961645169   -0.03451969079103
N           1.30135590346196   -2.28659825885918   -1.78622230764595
H           1.44065831087279   -3.18517960986839   -2.23435704991236
H           2.15445883471337   -1.75326967877306   -1.91203838753625
H           0.58120260883685   -1.79677271872100   -2.31200231807584
