    26
        -50.45276764  Gyration_radius:  2.53247613811 Dipole_moment: 8.974
 S           1.69063934349710    0.00036523073425   -1.72364488399827
O           1.76079897184811    0.33822209096069   -0.27865240691906
O           2.72341155870091   -0.90476526187965   -2.10733542659901
O           0.34036286753882   -0.56372401366224   -1.97651839191359
O           1.80189564499632    1.32244205469313   -2.52019742407883
H           1.03791453348834    1.90379331736112   -2.26426675120870
H           0.49582648380351   -1.77605962756034   -0.88414762214589
O          -1.42306117855643   -1.81636038604084    1.58555193882960
H          -1.17097343460664   -1.04462673447616    2.16317833181353
H          -1.78090635593550   -2.48471405719489    2.17120813535029
O          -0.29062853159539    2.67674077912345   -1.68849191518386
H          -0.19371946355298    2.68776139452967   -0.71985539195384
H          -1.05896983489953    2.12623144849720   -1.87067408975704
O          -0.65740866048385    0.22668781891485    3.03753770913907
H          -0.36639625035664    0.85628885841044    2.32617967387965
H          -1.26296779694417    0.72040237912850    3.59210142214550
O          -0.15873615204326    1.68250071452007    0.89925519928241
H           0.66686321897542    1.27719389654564    0.54794175117696
H          -0.87988741600154    1.20903849526349    0.42343537138534
O          -1.77235854852772    0.20297602894906   -0.62403139350716
H          -2.01235254228650   -0.57156327718456   -0.10625548541101
H          -1.04494344961413   -0.08550424124598   -1.22598454978916
N           0.81006119398490   -2.00171890133751    0.10197309682249
H          -0.02264176231221   -2.06206944034106    0.73808644668088
H           1.35914911734365   -1.09972039547522    0.26978908542747
H           1.40902843353242   -2.81981816123677    0.13381757052848
