    26
        -50.46654165  Gyration_radius:  2.46900459918 Dipole_moment: 5.986
 S          -0.81124014849994    0.24741568717936   -0.76243889404855
O           0.58938987135833    0.32060045620919   -1.18441744664564
O          -1.17072115873995   -1.14595299296568   -0.46090246910211
O          -1.08192233709332    1.12255220110921    0.35928739386625
O          -1.70302443493909    0.63907120221047   -1.96017185412498
H          -1.50501194222639    1.59281444621492   -2.17479115144084
H          -0.05288325724019    0.64422680384359    1.62615147689178
O           0.80335846432218    2.89464045861863   -0.59138789611869
H           0.25061624973022    2.86386024208591    0.19702607054510
H           0.92186940140281    1.95466906737358   -0.83521263723678
O          -0.98154102250313    3.06534887594665   -2.51325955000645
H          -0.50276786807410    3.07284683402797   -3.34476625650769
H          -0.30281219133411    3.19005875795235   -1.80023646626371
O           2.32166636731303   -0.71836253490093    0.52446584989897
H           1.56544800839410   -1.96592891156731    0.39978637026449
H           1.90428445836788   -0.24733687933066   -0.22891302495716
O           0.52647217521158    0.14906014333649    2.24042404477634
H           1.87597121922367   -0.31766906876289    1.31258954460606
H          -0.00365785577116   -0.61987613054694    2.49877195715187
O          -1.29936393541239   -1.95328625685505    2.08010719063686
H          -2.11615545692677   -1.78433838467263    2.55162329496417
H          -1.42809505913160   -1.59424303102962    1.17623048566327
N           0.76418451152931   -2.72045200940819    0.25502988849421
H          -0.01661267349934   -2.15835689369975   -0.20753445664872
H           0.39876274449129   -3.02431289231761    1.15761821334259
H           1.05378587008769   -3.50704919004672   -0.31507966801779
