    26
        -50.45976312  Gyration_radius:  2.47202603381 Dipole_moment: 6.361
 S           0.18359984313753    0.76380530114647   -1.15771515795262
O          -0.21822139206687    2.07229626528029   -0.67771344218705
O           1.12622615784705    0.75497327203176   -2.25251045577986
O           0.95779987020509    0.08957693138275    0.08312619271338
O          -0.94240183964571   -0.11988498526482   -1.41106272648037
H          -1.70268078271500   -1.14829618995807   -0.38015713316950
H           1.43136425918737    0.86453442372094    0.52767340040803
O           0.04377507211498    1.95202416459779    3.13339210017902
H          -0.64238542346138    1.62182005291014    2.51775169557373
H           0.23550962913022    1.23579734104217    3.74019726740803
O          -1.66618675165207    1.00248946274786    1.24305256318105
H          -1.15829992928023    1.38009031520987    0.48789866180068
H          -2.54834537693217    1.37186593996428    1.16415619461038
O          -1.80900067875192   -1.80916134749942    0.34609611465437
H          -0.39838422202809   -2.43769604252285   -0.16044267468940
H          -1.78993266405832   -1.25903796617671    1.13657331561168
O           1.80083347470219    2.26412143239643    1.09933840517461
H           1.23201119876976    2.68619590550825    0.43650714885770
H           1.28830951501482    2.29674104892837    1.93589324909497
O           0.62990774802141   -1.68001040228596   -3.04567331186735
H          -0.28529278706196   -1.55870101540072   -3.31469275778542
H           0.93841764458093   -0.75640755857097   -2.84909217404029
N           0.59257657262784   -2.44861814723760   -0.54244830478830
H           0.57266618252002   -2.28151168553890   -1.60610510007080
H           1.11474118148134   -3.28026019124058   -0.28834465306358
H           1.01339350826890   -1.57674629521717   -0.16569841731006
