    26
        -50.45560293  Gyration_radius:  2.46667869795 Dipole_moment: 4.863
 S          -1.85291437123509   -0.59324398687485   -0.60680138338974
O          -0.44633314522354   -0.76165020703620   -0.94969714164407
O          -2.41754475019288   -1.69121031875280    0.09750742531537
O          -1.97232869327562    0.71075945070248    0.21633162091042
O          -2.63403029261117   -0.26814842774938   -1.86961247354024
H          -2.01965365376845    0.33134937195228   -2.43431351404919
H          -1.37915931651496    0.63188897774216    1.07488887996328
O          -0.37225995788746    2.72214632829059   -0.99557154682138
H           0.43530909605610    2.36733064223526   -0.59450371499590
H          -1.10055855291817    2.42169124020828   -0.43831255813870
O          -0.32393239636428    0.44310603493937    2.07691674608309
H           0.42961629349673    0.79786131526289    1.54685905330630
H          -0.18422851254688   -0.52632157460524    2.08678725802847
O          -0.88018491230011    1.12305138641206   -3.03788691516769
H          -0.14783847727467    0.50375734091065   -2.96205240602489
H          -0.68831633893623    1.85472598677749   -2.39448583288507
O           0.03701152112203   -2.13703337250256    1.33413956509902
H          -0.80021670403990   -2.59652599232383    1.45261702932487
H          -0.00064697578624   -1.80956095712249    0.41855148446520
O           1.41330437440473    0.89672189705767    0.11971844102528
H           2.13038129181147    0.32609567533455    0.48315447664172
H           0.85316673082593    0.28745305871623   -0.39402088591320
N           2.89908302805824   -1.03068104220250    1.31254307551054
H           3.31715062518842   -0.80979241596778    2.20781229457838
H           3.58615723768867   -1.53538100369675    0.76675919722576
H           2.11896685219364   -1.65838941768946    1.48267183506313
