    26
        -50.45039082  Gyration_radius:  2.47979185393 Dipole_moment: 3.738
 S          -1.65634903563275    0.34012533663968   -1.32398132967588
O          -1.70371184196279    0.28599085153536    0.12472066415685
O          -2.11298529479945    1.55228954483349   -1.90220712237622
O          -0.19110264908088    0.05917338384688   -1.75288613033992
O          -2.39581929979443   -0.87176831573387   -1.89221425421633
H          -1.97344952130072   -1.70014304077692   -1.48943789939764
H           0.31817142955407    0.91600688804650   -1.54294579348500
O           0.15687027305576   -1.41237935335783    0.94904549591628
H           0.97237286356258   -1.14255277764437    0.44703996093588
H          -0.52276885898533   -0.74302742636207    0.72802578792839
O          -0.16118306565235    2.18564369112696    1.31300364047187
H           0.33981096237775    1.64269987049290    1.95526846463772
H          -0.91073126574929    1.63328060873817    1.03635696687532
O          -1.30264401752983   -2.86997496754079   -0.70912289655240
H          -1.96662551202164   -3.32029329360364   -0.18220360166890
H          -0.66656970351171   -2.45816986429951   -0.06776763358332
O           0.83112247483415    2.27642552403637   -1.07748197251613
H           0.27175873634286    2.89974750473096   -1.54829438623130
H           0.54275506399676    2.33132564422452   -0.11651813469951
O           0.91784302944324    0.29055763264632    2.95591561147712
H           0.42180457356619    0.15156910326026    3.76382461638901
H           0.70993775135946   -0.45991803259857    2.36484112777404
N           2.33067000665200   -0.50718553870785   -0.35187207106227
H           2.16845217200497   -0.72916757988048   -1.32609487982871
H           3.24485215350841   -0.85229320813446   -0.08901705571531
H           2.33751859575238    0.50203783449055   -0.26599718527318
