    26
        -50.47214645  Gyration_radius:  2.4795285269 Dipole_moment: 4.360
 S          -0.54653418426378   -0.35093590069402    1.47488629609336
O          -1.00127646042656   -1.28243826361683    0.45364268298924
O           0.85142550855093    0.00690597489512    1.30048811437667
O          -1.40643214189130    0.83490486090096    1.51318803794895
O          -0.65008153938795   -1.05855443799929    2.86450193440959
H          -1.59807693621676   -1.29046277009735    2.91411424704097
H           1.60084786822834    1.26766765415305    0.32539103438855
O           1.76728304056403    1.84722143342499   -0.44361615770951
H           2.00116285661738    1.24112668066827   -1.16458494780055
H           0.20705209790998    2.18626673885438   -0.67889532518785
O           2.33576445524485   -1.74030940426981    0.01160945726843
H           3.16809723802281   -1.71588176782031    0.48777057130697
H           1.70703065155881   -1.20564624560588    0.54653223874860
O           1.94760461408528   -0.32914241712586   -2.19112434466238
H           2.38553008652667   -0.72971687575952   -2.94329514372450
H           2.11458404668860   -0.92443661570397   -1.41813430375620
O          -3.16653944177323   -1.20782348160983    2.06856157284012
H          -2.73283172824997   -1.55982430882226    1.27684618262676
H          -3.10265678264459   -0.24891482733046    1.97681471300529
O          -0.80254602559142   -0.27533898665098   -1.99606696881892
H           0.14844328276636   -0.35775825025902   -2.19697702010686
H          -0.93429460124873   -0.79126285574565   -1.17088268410492
N          -0.83747441167549    2.01307217660790   -0.75147702074547
H          -1.15164086314780    1.67476523869687    0.20166738862766
H          -0.94869130484002    1.16835058894034   -1.40287726857467
H          -1.35574931549873    2.82816604193018   -1.05808330649260
