    26
        -50.45772694  Gyration_radius:  2.45608280739 Dipole_moment: 3.389
 S          -0.28718288174042    0.44199358221887    1.69930432483497
O           0.94477522685893    0.55742093567039    0.95672758552441
O          -0.97750312136277    1.69146697385518    1.85005686006678
O          -1.20152715233956   -0.59171624909052    1.01174024154865
O          -0.04111803215807   -0.20752036295461    3.05048664751646
H           0.14912575380416   -1.20298748177550    2.84266221120588
H          -1.50588133752830   -0.29316730162382    0.06049309566717
O           0.43827464677667   -0.43734172867847   -2.56744097195111
H           0.48206331315526   -0.34693761757842   -3.52049404032291
H           0.87588755454147    0.36952892390822   -2.19134686181442
O           0.27427048673889   -2.59668744792810    2.31147873875496
H          -0.63123633967687   -2.81109747332455    2.07181072944817
H           0.76715046514765   -2.49310515938813    1.43547735855400
O          -1.22210248791919    2.75810766068450   -0.55068231378595
H          -1.10540824180023    2.46099392419519    0.38070524649340
H          -1.83160945409211    3.49804856654660   -0.51892292417880
O           1.27857155417871    1.78819950772537   -1.41250479335220
H           1.37578294059775    1.41622468495472   -0.51804673480797
H           0.51396506013421    2.37552803990806   -1.34189352640780
O          -1.80907191478910    0.20515995545578   -1.28249646968236
H          -1.68901521829452    1.17018238321826   -1.18706788908163
H          -1.04841218423890   -0.11916329844919   -1.82050854526889
N           1.44662713278945   -2.05905706302495    0.01446358246725
H           1.49531149955274   -1.06856609467027    0.24901267590874
H           0.92054214375318   -2.12482202028661   -0.84943977957551
H           2.38772058792809   -2.38068579956773   -0.17357443776384
