    26
        -50.44416880  Gyration_radius:  2.60952448909 Dipole_moment: 6.868
 S          -1.29178293407161   -1.11110188892322    1.67086705100647
O          -0.92180704289586    0.12678498936288    2.31290186340973
O          -2.54526970563929   -1.67591113141932    2.01201422932517
O          -1.25227266663910   -0.83620114568012    0.11245947280499
O          -0.17069288833891   -2.13288327004873    1.80975621062391
H           0.76301480255938   -1.67293285120901    1.74500297963050
H          -1.99058158605139   -0.17474207567139   -0.06204390525192
O          -3.00502511557795    0.94217412966834   -0.44891012487650
H          -2.55272327149823    1.44613126190637   -1.16601001900746
H          -3.83522972468783    0.61601185583703   -0.80092710190910
O           2.04492062255037   -0.98082121320532    1.54832852135400
H           2.33766263577886   -1.19966694363163    0.62215563824153
H           1.84647864865811   -0.02832643266275    1.54277163823515
O           0.97956078926565    1.55166008425851    1.28400332866441
H           0.20112297228116    1.08694633300618    1.68695635403768
H           1.08579910530400    2.36509892585325    1.77901974631468
O           0.56792167014875    0.69487239204424   -1.27393227431066
H          -0.01081546894855    0.00253314599252   -0.91270124697289
H           0.84038676450854    1.20002697430245   -0.48742789258224
O          -1.50710573359396    1.98895086724038   -2.39745885189671
H          -1.56572804209366    1.71577790053122   -3.31404367294253
H          -0.66135931012561    1.62402233509411   -2.05208622038261
N           2.64677106927332   -1.38025780504223   -1.03517362627837
H           3.60480413884643   -1.27129711811435   -1.34071422390950
H           2.09125665740758   -0.63389290396606   -1.44692276022551
H           2.30069360359462   -2.26295642569188   -1.38788511308456
