    26
        -50.44991113  Gyration_radius:  2.59523421404 Dipole_moment: 3.470
 S           0.44691060568370   -0.94479654754924   -1.08525646866974
O           0.02576341178168   -1.12929582307869    0.29247057097143
O          -0.47201816764271   -1.44052326584009   -2.05380575786675
O           0.69097624137713    0.56907432899221   -1.29852778468725
O           1.81284504399171   -1.57114092085972   -1.30522279981787
H           2.49234993699375   -1.13517752512181   -0.65403435726161
H           0.23177900240463    1.06013902789628   -0.54321831486563
O           2.04283486127263    1.44675273698969    1.67356616747523
H           1.88456232256603    0.76297157110083    2.33529243917566
H           1.17220797815248    1.75503227820416    1.39281090052204
O          -0.59718356072949    1.44903299076502    0.70897990434331
H          -1.47554915733385    1.74092806208092    0.34205664009159
H          -0.70472091898809    0.51732123731323    0.95273983465936
O           3.33322814117604   -0.52327957436189    0.39775954207453
H           3.01550793641788    0.37841403562553    0.62210933274414
H           3.10895155062431   -1.04250806989096    1.18817305941244
O           1.65572408471224   -1.35426311075744    2.38730670310927
H           1.42923858496971   -2.12255844110440    2.91262700977388
H           1.00865663892078   -1.32128738762251    1.65179618618083
O          -2.84501953773988    1.96146371190905   -0.52056094115889
H          -3.01057441460580    1.07439408590349   -0.94993277850095
H          -2.73901804653248    2.59262575318597   -1.23401298916972
N          -3.12400487302897   -0.42161238928310   -1.68876161681706
H          -3.60823695728019   -0.42891005883252   -2.57881984413803
H          -3.59181189973084   -1.09032970533189   -1.08850531651735
H          -2.18339880704722   -0.78246701045520   -1.85702934107805
