    26
        -50.46949718  Gyration_radius:  2.39081506262 Dipole_moment: 9.058
 S          -0.25676537176343    0.29626329324470   -1.79525268322243
O           0.19021328815218   -0.87351026079492   -1.00105296172369
O          -1.66552785347391    0.22912081502416   -2.05250164842137
O           0.16839792851369    1.51984391341826   -1.11970740513780
O           0.51116043224914    0.20491429505925   -3.14663847945070
H           1.42856812984251    0.41430385156854   -2.88279329004901
H          -0.46216497550719    1.89020867153574    0.36268970674581
O           2.24347291643492   -0.74086291966939    0.51382289434747
H           2.65816777565298   -1.60439655928897    0.47381619818878
H           1.48172240019509   -0.77315223039959   -0.13658837809452
O          -0.91059063186381    1.82776491282099    1.23908311182285
H          -0.24522071455675    0.72915724683083    1.87213693369056
H          -1.80290414179961    1.46165929573889    1.00594800114351
O          -2.91875588254633    0.41724794706404    0.30625505755211
H          -2.63989854538801    0.44316201029960   -0.63101632320440
H          -2.68299365149497   -0.47129582302160    0.60627873934417
O           2.65009800616208    0.99435046120447   -1.77199962083208
H           2.93646831357564    0.45734551239467   -1.02314052245076
H           1.88486379299682    1.49860631983589   -1.43815228545926
O          -1.36806410808594   -1.89119996928253    0.79965876542464
H          -0.83524965057955   -1.53217428411595    0.04021213424230
H          -1.65944721555084   -2.76295859378347    0.52999638021150
N           0.22460699061121   -0.21631391618935    2.25776962958101
H           0.35725580478773   -0.18534006769707    3.26210392274462
H           1.12534502447621   -0.35309971164870    1.75071408436863
H          -0.41275805104793   -0.97964420014675    1.97835803865356
