    26
        -50.44864124  Gyration_radius:  2.45965027901 Dipole_moment: 4.152
 S          -1.51335424559099   -0.40440965124767    1.27681430567812
O          -0.98026296694717    0.12299842630225    0.04090359246907
O          -2.08405575585664   -1.70514800698182    1.17118853011390
O          -0.41402666052647   -0.35183129290449    2.34660717525406
O          -2.55860718180253    0.59886594229697    1.81816121807695
H          -2.04606319878049    1.45173431445218    1.81468978899046
H           0.54296191412494   -0.46776547269166    1.88351335592504
O           1.30804965877588    1.87553632556550   -0.10316352980504
H           1.15064472072063    1.61695771296097   -1.04218239500244
H           1.93147526598486    2.60429512241898   -0.12473001553880
O          -0.70809917021848    2.42772039453363    1.75118326985331
H          -0.20383188069293    2.08887384075144    2.49641348652307
H          -0.18910935208695    2.19736799038516    0.95686584195003
O           1.19224092459522    1.04274081934011   -2.63509346143005
H           1.96373602709414    0.51443792547137   -2.84782301148685
H           0.42918915245227    0.42465619249282   -2.65688146194118
O          -0.82449892880250   -0.72486745868210   -2.43702055898456
H          -0.92902582643668   -0.44979725642335   -1.49766483226493
H          -1.66164441178721   -0.53128932738130   -2.86196492692637
O           1.68902063039725   -0.57487780889759    1.06321400064122
H           1.60824331933800    0.26235741337118    0.56476851965052
H           1.34888098484908   -1.30903698130457    0.47380130482878
N           0.42947787889592   -2.50754571670721   -0.25677556920426
H          -0.45029899077839   -2.45027841014111    0.25061396887370
H           0.74545360847013   -3.46910303678263   -0.22139433763947
H           0.22350449458025   -2.28259202008521   -1.22404426856013
