    26
        -50.44775011  Gyration_radius:  2.57321602299 Dipole_moment: 5.081
 S           1.59654374570382    0.75187849271376   -1.62197425300369
O           0.35854742078422    0.05183804221514   -1.30943214060750
O           1.54372337958276    1.56717965115025   -2.77824348013798
O           2.01733860410080    1.53482741849651   -0.36160978795634
O           2.72277144897269   -0.28287609101210   -1.74522088356153
H           2.79118676988127   -0.78678692036538   -0.87708137595223
H           1.26420352434603    2.15713080951654   -0.08029293713823
O           0.09312639677957    2.98811038110587    0.42141757444549
H          -0.51097766861123    2.33865179009660    0.89139197598045
H           0.39614821784252    3.60628590976424    1.08960517083561
O          -2.28734265401013    0.37256745762103   -0.93922074467290
H          -2.60497990778650    1.07410645728809   -1.51024423056345
H          -1.35159195946654    0.23446475745730   -1.18455822124522
O          -1.38473949527745    1.16387783786719    1.54304327922905
H          -0.75278528602851    0.43128353927176    1.66734404469839
H          -1.91833367133890    0.89976148578316    0.77149673041718
O           2.74230489390444   -1.65076234133883    0.44489933203798
H           2.72540854536534   -2.58701241315167    0.23510639839851
H           1.87789216670438   -1.43803065933238    0.87208020842758
O           0.25905948603489   -0.99143651767609    1.10732670903232
H           0.28772467384690   -0.58161645662750    0.21581776912749
H          -0.50445733139921   -1.61351602326639    1.05475165241777
N          -2.08510676704973   -2.26373760053273    0.61533885491380
H          -2.74093987189242   -2.33697593206499    1.38321800547980
H          -2.12923597065765   -3.12532303016439    0.08599071571931
H          -2.40548869047603   -1.51389003471832    0.00904963365277
