    26
        -50.47205568  Gyration_radius:  2.44988199541 Dipole_moment: 3.647
 S          -0.10262554852539   -0.87941821769508    0.34699948718440
O          -0.15496327860635    0.60279765552822    0.46934800449117
O           1.15512705417782   -1.37688273891748    0.87249370451591
O          -1.27046435609052   -1.40927452003342    1.21859266845339
O          -0.34920639290365   -1.27114356620803   -1.01952244920359
H          -0.85397286988567   -0.44497175154289   -2.53399203472052
H          -0.88573880720020   -1.47515240463785    2.14857300450765
O           0.01818067079498    1.30330349108320    3.04096952018863
H          -0.78337316669170    1.79333438748311    3.23279636104673
H           0.00966066790213    1.12659905976207    2.07856509853381
O          -2.50983611179220    0.91579252611898   -0.78942578194660
H          -1.69552087601196    0.85974694815093   -0.25723296796145
H          -3.00767134717176    0.12353880344701   -0.57843958204909
O           2.47133369905115   -0.99388259067504   -1.39108851365387
H           2.13601719079885   -1.17257915188373   -0.48416558518559
H           2.05141220954437   -1.66417733740887   -1.93698735199832
O           0.11257956020819   -1.37089263112695    3.36390457698682
H           0.13624544218635   -0.40421415792039    3.51992266042190
H           0.86085505088798   -1.55107865166742    2.77448637476030
O          -1.01438981306708    0.39874527042371   -2.99762502397684
H           0.30402101011806    1.03707883582515   -2.42229149906533
H          -1.73034257343238    0.79781940500304   -2.46618411396903
N           1.10503739171549    1.25508260658848   -1.73986184973789
H           0.65637664205912    1.21226981119165   -0.78949472779550
H           1.55813834714110    2.14461589315313   -1.91818837638901
H           1.78312021479484    0.44294302601655   -1.74215159344328
