    26
        -50.44471835  Gyration_radius:  2.49871186719 Dipole_moment: 6.520
 S          -1.27475033760940    1.39756425440158   -1.45125103971809
O          -1.97013506828240    1.26108052989768   -0.18884157543450
O          -1.47057370736936    2.61471911481648   -2.14834823418736
O           0.25219312581588    1.17328891071436   -1.14797501661523
O          -1.56749520723549    0.19195891668414   -2.33367513016941
H          -1.41319545671088   -0.62838158832369   -1.73002990228319
H           0.58075975834039    1.79048103472322   -0.41890975812674
O          -0.39992335769308   -1.02183564751784    1.82414035414595
H          -0.68053236003408   -0.11551675160763    2.05955324959252
H          -0.78182303836802   -1.61324458161013    2.47425638811750
O          -1.10734795355792    1.56958687000234    2.20844698450099
H          -1.49527112009127    1.50754666881130    1.29430066944604
H          -1.75218674681126    2.04192721698701    2.73727942314944
O          -1.03670466582362   -1.73239235124877   -0.80155128027505
H          -0.14527525143093   -2.05709794073569   -1.09730757114138
H          -0.91605728360499   -1.41530249008111    0.10985289469740
O           1.19857425504437    2.32314275340467    0.94080589614602
H           0.46526817399470    2.19558195167536    1.56865451054192
H           1.81290742508751    1.58499004951005    1.08536293383216
O           1.98551640078483   -0.34669498871832    0.53453900974500
H           1.27234453902392   -0.71233081617953    1.07862638410820
H           1.55449213577966   -0.01671904789268   -0.26423867354806
N           1.46345370768469   -2.45871381097208   -1.51866978258759
H           1.66827316188855   -3.44789469148179   -1.57464755479565
H           2.07857268467514   -2.04369690214737   -0.82478594490708
H           1.67891618641702   -2.04204665287118   -2.41558721409555
