    26
        -50.46484274  Gyration_radius:  2.44372568192 Dipole_moment: 3.443
 S           1.56151733537816   -0.70433775307665   -0.08586875226884
O           0.51740868880428   -1.21852610655112    0.80751954994962
O           1.97339597045255   -1.70953282658430   -1.05352772242041
O           1.09576435603670    0.51023709515371   -0.75226014905055
O           2.79500672257696   -0.34676435800000    0.78130907898477
H           2.61662126691161    0.57684299121260    1.11521482948156
H          -0.55314599125041    0.92035709810367   -1.03731735955805
O          -2.20288194418409    1.87404781421405    1.33826848265595
H          -1.47805188846148    1.46459467035520    1.84283977486932
H          -3.02026016821719    1.53654556104320    1.70745619734226
O          -0.14363648529865    0.54028606370562    2.58380347653285
H          -0.06900130927728    0.12446851799143    3.44406754801989
H           0.07745807268203   -0.16383810019468    1.91768023663335
O          -1.52373014968582    0.95380645016433   -1.14205135407315
H          -1.84012447212056   -0.65778441173358   -0.83538858470335
H          -1.84487594001296    1.43464259261055   -0.35673081640737
O           1.85069428246345    1.98262744942520    1.36573609692288
H           1.12548466203151    1.72926991591612    1.96297983300075
H           1.48741825623724    1.90441090828966    0.46925874203961
O          -1.62281110188531   -1.62343073537311   -0.74007636945165
H          -0.77660419084281   -1.67249982684241   -1.96101283582481
H          -0.92736353232742   -1.64275907828261   -0.04937679170975
N           0.02255453979063   -1.50409127326890   -2.70294405349156
H           0.92494341938330   -1.63987063922115   -2.12457773808110
H          -0.02120311748716   -0.53171481814182   -3.00030899940981
H          -0.02457729177852   -2.13698720088795   -3.49469230991689
