    26
        -50.44019858  Gyration_radius:  2.76061181562 Dipole_moment: 10.373
 S          -0.20512298100433    1.67947277468255   -2.41784148684623
O          -1.04067817893308    1.79945443126115   -1.23347970536423
O          -0.17673957529495    2.81350509012493   -3.26347913212937
O           1.21258923829821    1.27145277786204   -1.93045055990216
O          -0.63633013558246    0.44102119267344   -3.21780732808956
H          -0.60406680101223   -0.37642083863111   -2.62512025541293
H           1.40300456708557    1.92390831862212   -1.18199955941348
O           0.35949744421846   -0.87101844272401    0.89600538823519
H          -0.54666609311923   -0.51593873084976    0.89422107588181
H           0.32066954592453   -1.70666824370138    1.41389004420212
O           1.78864912265025    1.14393848653581    1.94243156042462
H           2.71930755451236    0.94068089600307    1.83680529384373
H           1.29419538885099    0.37928400234359    1.57309002811775
O          -2.17613791222137   -0.03233363799495    0.24455740917446
H          -2.93981946491002    0.35502992162070    0.67409235753206
H          -1.79622324056585    0.68177688970294   -0.32216772646557
O           1.19292674039070    2.89656138591979    0.01597684691847
H           0.23173750385915    2.91285267921986   -0.06620305228592
H           1.39945922726454    2.36158862179012    0.81976218213150
O          -0.65097362984536   -1.51947408563783   -1.55689623947888
H           0.02380701217461   -1.33138020757084   -0.87696622243085
H          -1.49317969949107   -1.33744065854155   -1.11715671961333
N           0.11073755440249   -3.23556014678094    2.25468844632342
H          -0.58209894233274   -3.79474287633520    1.77206534536939
H          -0.18910729679468   -3.12585800677779    3.21554953606534
H           0.98056307146014   -3.75369160278643    2.25643244320289
