    26
        -50.46282468  Gyration_radius:  2.50677579683 Dipole_moment: 2.384
 S           0.22757754643184   -0.56278121286605    0.90116473948758
O           0.29979689133778    0.64821118798848    0.02829038034832
O          -0.61377639991434   -0.32375534045400    2.04301988142190
O          -0.43388479111431   -1.65187583870724   -0.01091123011217
O           1.55482077693864   -1.04259372921816    1.18670797016790
H           2.83856130783742   -1.21282128601706    0.08280215797579
H          -1.41665438700513   -1.42005888043436   -0.10286007454468
O          -2.84814911366805   -0.90054026005231   -0.32111662551800
H          -3.23113459802084   -0.74569123528209    0.55280166627072
H          -2.69197323986449    0.01336683304539   -0.66579121295558
O          -2.99133883380512    0.78045448844616    1.92257255912972
H          -2.08880916760837    0.39804075439827    2.01860590406213
H          -3.28537138443683    0.98161801848744    2.81151775734003
O          -2.12590121176348    1.62560665572636   -0.61987893740070
H          -1.19913475730566    1.42944103477417   -0.38933619995318
H          -2.56568770921754    1.79381294673890    0.22473340398300
O           2.86077185931303    1.54700815035608    0.14819436280806
H           3.11608297749852    1.61019678650700    1.07020295625832
H           1.90728411695661    1.33981980321416    0.15281263918609
O           3.35071703881187   -0.94754753641157   -0.71670631226990
H           2.17115054063243   -0.85809003511582   -1.61852723745981
H           3.52770163141121    0.00013482212973   -0.54208531862087
N           1.15335691614541   -0.67645080377927   -2.00416427991940
H           1.13914609312833   -0.29249078974023   -2.94380524478384
H           0.74328843849065   -0.00159173899065   -1.27734167729432
H           0.60155945882936   -1.53142279471473   -1.93090202756555
