    26
        -50.46251041  Gyration_radius:  2.38977579137 Dipole_moment: 6.277
 S          -0.87378487032282   -0.96310872345702   -1.52023364345277
O          -0.47950524657409   -1.37554035635350   -0.14550838274130
O          -2.29187303389740   -0.97458886594199   -1.68589835398813
O          -0.34133149523844    0.52185009290843   -1.64820481585352
O          -0.07770749817603   -1.68596147501141   -2.50166035460860
H           1.28476052490712   -1.57863551279062   -1.86570620111059
H          -0.85042516704210    1.12350542806807   -1.01846507476487
O           1.00496261873875    1.73407626462074    1.56733781775054
H           1.39560712911749    2.21515890724697    2.29768319675082
H           0.69016814075003    0.86509270612182    1.92921687092051
O          -1.41913922156472    1.95007704526249    0.18974839100599
H          -0.62523600554255    2.06120856268804    0.73753428213823
H          -1.96873252837584    1.25873533668886    0.61782871517661
O          -2.66328051592128   -0.29555980481173    1.00430114841953
H          -1.98817401558813   -0.81958848820314    0.53216767200090
H          -3.43854135545226   -0.36422517934607    0.44108051623777
O           2.20496336866301    1.16968177353572   -0.84096251174040
H           1.42279096622645    1.27267252868631   -1.40459812535963
H           1.90158913465197    1.44053039016424    0.04655019096438
O          -0.01411768412976   -0.56062103405762    2.35407337396860
H          -0.90518690914805   -0.45040545102697    2.69871140863428
H          -0.14766043348200   -0.95632662741184    1.47009681414330
N           1.95219254257253   -1.44846127935102   -1.01951553491375
H           2.24472089896177   -0.42720295377569   -0.95996622208360
H           2.73248452733715   -2.09581723347266   -1.00456936325454
H           1.25045609853023   -1.61654605098446   -0.27104182423465
