    26
        -50.45043702  Gyration_radius:  2.52673157543 Dipole_moment: 7.547
 S          -1.46854934570258   -0.49519046989890   -2.11325656615960
O          -1.36924657851049    0.54013566977256   -1.10417696531883
O          -2.28576296349655   -0.22729793991091   -3.23427451987209
O          -0.02959562835685   -0.85647412365328   -2.56595903221917
O          -1.95517783196234   -1.79513143162742   -1.42996930469116
H          -1.48938483505074   -1.91641245332320   -0.55329003932382
H           0.68224753687835   -0.35719766311191   -2.06243019884921
O           0.50871843406530    1.75866998292141    2.07998651400409
H           0.42222329251511    2.53522683842141    2.63409422846580
H           0.52557189863982    2.08930465027192    1.14187360437084
O          -0.91916475778352   -2.07997973137827    0.93216755082194
H          -1.46912134764674   -2.74477584257365    1.35101365762231
H          -1.24284334857724   -1.18665239932853    1.27830787545687
O           0.45105233192530    2.44671780507836   -0.46734325349482
H          -0.33378729830481    1.94488844298882   -0.74739840583231
H           1.18841730766475    1.97395676721089   -0.87513878572132
O          -1.72135344747913    0.28122643502245    1.55819916726460
H          -0.96024278319697    0.79981237937709    1.88831585816960
H          -1.79887375906777    0.52520766373368    0.61847991571280
O           1.93576685028151    0.26537699323542   -1.34377856459229
H           2.71413754272454   -0.09284414187376   -1.77341320148093
H           1.89770050653841   -0.13710118811931   -0.40273983920473
N           1.74586461730167   -0.73659455218042    1.04699470428337
H           1.44663348618642    0.04515267783756    1.62362873960406
H           2.54071721149972   -1.17241083584583    1.49588068982519
H           0.98405288887247   -1.40761353301614    1.02422616106201
