    26
        -50.45644092  Gyration_radius:  2.43001639817 Dipole_moment: 2.181
 S           0.33288686791851   -0.23467676737963   -1.76609737704423
O           0.38788988409771   -1.12186908779572   -0.62193790897339
O           1.46995664455185   -0.23608416294275   -2.61070795899893
O          -0.93393896892692   -0.56996548148317   -2.56573148797491
O           0.10714150182869    1.20883703419960   -1.26231169014333
H          -0.59563544808013    1.27325617112031   -0.54119594240094
H          -1.71013163015356   -0.67086733668850   -1.91598122697181
O          -0.59705004342758    0.14178987788076    2.47940885057463
H          -0.92244647113882   -0.75520351249241    2.31511550153737
H           0.36473562939020    0.11484186535376    2.25014923868808
O           1.83449539403736   -0.15128908894082    1.46705852892639
H           2.36033575138841    0.51536311361006    0.98127091484611
H           1.46108810010807   -0.69412263067699    0.75667119720164
O          -2.74278654805827   -0.71541514619716   -0.76828736659980
H          -2.45795625818293   -1.37697438823243   -0.11043933606263
H          -2.66024863635555    0.13886852445852   -0.31521239893370
O          -1.67453004953388    1.41861917225834    0.56307832790999
H          -1.26482830924555    0.93891273203865    1.37088712273168
H          -1.77831218436824    2.33635659399652    0.81989881554322
O          -1.34037057286475   -2.18835599022445    1.06317559885122
H          -1.20994560102270   -3.13183926781731    1.16819783639794
H          -0.62715283345126   -1.87187358397823    0.46831667257533
N           2.98677802966617    1.30680965672643   -0.55147587903876
H           2.61469823449501    0.72391488810521   -1.29662548354627
H           3.98983687760552    1.36660297971695   -0.68323414473352
H           2.60549065979074    2.23436384545662   -0.69399044438252
