    26
        -50.45123044  Gyration_radius:  2.47095589951 Dipole_moment: 4.666
 S          -1.96499965108336    1.00182206491598   -0.94359224748475
O          -1.64233030000458   -0.27161226799907   -0.33888216135840
O          -3.13649891098090    1.04031089694438   -1.73723126579943
O          -2.03216727700934    2.07551736216684    0.15704662855980
O          -0.71879814914043    1.47233115776601   -1.75202041841455
H          -0.15254012775929    0.70385417845527   -2.05148291866412
H          -1.10672470694229    2.11197720140036    0.54717726383971
O           2.02696718612019    0.50748497919785   -0.13386734075649
H           1.95828366823007   -0.33341643339501    0.35635873569604
H           1.79848764557281    0.29911714085448   -1.04796601702534
O           1.48163169188506   -1.78214801600842    1.26302590785968
H           0.72509624156645   -1.32028237772143    1.73812377929550
H           2.00635656877004   -2.22630588034746    1.92933094213501
O          -0.05076422430894   -2.35593096238248   -0.95436648295439
H           0.55012316454443   -2.34919279227977   -0.18878809882501
H          -0.80645442276342   -1.80464200168619   -0.68605500449370
O           0.80875307845170   -0.47778705817514   -2.49257670538499
H           0.51495012291756   -1.28201541343992   -1.95625240739634
H           0.68905853816840   -0.70239492698079   -3.41652789782910
O           0.37936849792015    2.17865994780110    1.03628012397869
H           0.99219288822187    1.53338483850451    0.58182575276352
H           0.70789882718361    3.05029730167831    0.80708530858273
N          -0.53824900847739   -0.43703044469523    2.29985960086827
H          -1.14691737659712   -0.74019889971527    3.04918488954034
H          -1.08967830448830   -0.40813951394526    1.44213074418764
H          -0.25304565999666    0.51633992908659    2.49217930907943
