    26
        -50.46585434  Gyration_radius:  2.38172987658 Dipole_moment: 6.671
 S          -0.89544216164598   -1.12357242824692   -0.71030583731072
O          -0.77389355997982   -0.36538961351469    0.55616026951671
O          -2.25414909831227   -1.50021536042307   -0.97735031200387
O          -0.42662412485867   -0.08748873722924   -1.82457497377410
O           0.08606519134149   -2.17948874044992   -0.76696547235519
H           1.66573092514801   -2.11696990527587   -0.23963413558661
H          -0.95394169207414    0.75729832972655   -1.64546629080921
O           2.47751151896567   -1.73783889685500    0.17774477996429
H           2.37507138874282   -0.41171338707431   -0.48457170145260
H           2.19556727593609   -1.57095637602322    1.10165983342442
O          -3.40009700976736    0.56621393183075    0.14453506707799
H          -3.13539044430093   -0.25520929679546   -0.33003521273975
H          -3.08665031650138    0.43786794680337    1.04291203672163
O           0.60758373349577    1.79140113876493    0.90114393948756
H           0.00929025153850    1.00355469000814    0.79910524446867
H           0.91020376432027    1.75829699146685    1.81113170448649
O          -1.61725154397517    2.04438003847641   -1.10141365225130
H          -2.40499245566427    1.63558917082686   -0.65715518137087
H          -1.05652275272276    2.39520258029484   -0.40093531823774
O           1.01435347524190   -1.12481823344693    2.34043706655909
H           0.29284293131149   -0.90143294398541    1.70826065409585
H           0.70779624267462   -1.88904060103609    2.83018989665206
N           2.03527762468398    0.51564016222975   -0.96800002223302
H           1.18647226607501    0.24895962922039   -1.51475229339609
H           2.74578719288112    0.93060319193932   -1.56080469146395
H           1.69540135702975    1.17912673858713   -0.23131538767538
