    26
        -50.44057579  Gyration_radius:  2.66963626608 Dipole_moment: 8.231
 S           1.12136304823400    2.08936752569509   -1.36408289795795
O           0.04117130063162    2.41376967307301   -0.44995605330589
O           2.03269459696661    3.13507612099655   -1.63746202752376
O           1.81998158074400    0.81876698122603   -0.79744634846907
O           0.52882795652133    1.54662164312012   -2.67993353904374
H           0.10543535707240    0.65547211247543   -2.48270233636649
H           2.02405821870738    1.07715196109873    0.16537459777342
O          -1.99573878130085    0.82246973171939   -0.13125738984163
H          -1.25818657056595    1.47898137575462   -0.20114807963955
H          -2.80706700976712    1.33154502483119   -0.15500769727602
O           1.04953433103127   -0.19946552623654    3.09725409958203
H           1.75401580890278   -0.81653201097991    3.30108922005531
H           0.50572898329964   -0.62022187338324    2.39900999356672
O          -0.35365757266434   -1.13963526809587    1.02014535237932
H          -1.02874646324192   -0.46413125795408    0.87164670313272
H          -0.72792227351714   -1.97484671328434    0.66812693071665
O          -0.50614461879036   -0.65462106100653   -1.83427345188590
H           0.17969750491238   -0.85310180947483   -1.18098338248137
H          -1.23339944083649   -0.25007547885594   -1.32085105536857
O           1.96002571767760    1.75488582797699    1.53955048051603
H           1.63245011167959    1.09770834581682    2.20449837172145
H           1.22821341637985    2.35424854142571    1.35720990324519
N          -1.42669875293026   -3.23591915074262   -0.40023522940109
H          -2.40800385175699   -3.44719768003096   -0.26896788959431
H          -0.91853764629450   -4.11128724073063   -0.40500404284458
H          -1.31909495119298   -2.80902980446396   -1.31459422186893
