    26
        -50.45046624  Gyration_radius:  2.61265501422 Dipole_moment: 5.263
 S           0.24928952117396    0.69918872459635   -1.16624172538178
O           0.80370637732564    0.66290798076537    0.16820876904661
O           0.83175621507636   -0.23629009282775   -2.07437070552334
O          -1.27857379510520    0.48121581488964   -1.06641528026955
O           0.34687428804198    2.10807933559590   -1.73389297927155
H          -0.15784632273881    2.74482532196104   -1.11377042328398
H          -1.47130893321368   -0.47192236209353   -0.78833885606548
O           2.02324093873084   -2.97370444975432    0.23365199320122
H           2.70173967185715   -2.32245502342976    0.04690741330459
H           1.42938689404794   -2.56215318022703    0.89896436172286
O          -1.66351207514731   -1.95474401018361   -0.40631515256051
H          -0.93148601345939   -2.40900634837601   -0.95705267867860
H          -2.49710103852175   -2.29531151031778   -0.73651321840863
O           0.23669599000776   -1.52902340788007    1.64871349600733
H           0.49545792665394   -0.70351073852597    1.20256128045784
H          -0.58572321300729   -1.80481837367651    1.22603755700713
O           0.27015033733582   -2.87066271826265   -1.79123293786266
H           0.56327564795955   -2.01279498598615   -2.14315097800418
H           0.94866268703541   -3.11114051368879   -1.11975410706377
O          -0.79510491333202    3.70707128874903   -0.12987936079920
H          -0.29866245792852    4.52850382946013   -0.13978686350111
H          -0.65403947656756    3.29125361580177    0.77552444063552
N          -0.23177920946606    2.45747024072513    2.12451465376103
H           0.26453727271384    1.73062752521492    1.60894225690272
H          -0.99984699565842    2.01385473712428    2.61206538302081
H           0.40021066618301    2.83253930032011    2.82062367161004
