    26
        -50.45164197  Gyration_radius:  2.43069812188 Dipole_moment: 7.818
 S           1.21049576043914   -1.37856484005958    1.45054227765756
O           0.62076735103345   -1.90652158866641    0.23093416728624
O           2.51567980888237   -1.84298860397838    1.77515899441772
O           1.31684296296959    0.22617108082976    1.17616035266529
O           0.22046768259953   -1.40648207416773    2.53784323135500
H          -0.90682542751652   -1.09919249473806    1.75541412108667
H           1.69977988072613    0.36995103584004    0.28367919777227
O          -1.53243573116254   -0.47413759910552   -1.60403639303427
H          -2.16821201778329   -0.84414254883810   -2.21744774610705
H          -0.63520122277327   -0.81526093193847   -1.91096998881980
O          -0.47155144327747    2.04412524987058   -1.22516851965546
H          -0.65059181243169    2.18843177299993   -0.28501575408955
H          -0.96879443731516    1.24283831851304   -1.46507423590294
O           1.96352887506274    1.02202325114474   -1.27909663290912
H           2.64159175908820    1.69743222326966   -1.32366980181301
H           1.08672143849882    1.48669731050961   -1.34285206510877
O          -0.76655330907847    1.82835879977353    1.56470956882234
H           0.05128578715871    1.27926150990024    1.51295773398147
H          -0.68345723329857    2.36029148368045    2.35731224204621
O           0.81808230716261   -1.32515071340201   -2.29621988588394
H           1.41210155022986   -0.56536738982781   -2.23579584245044
H           0.88579670813604   -1.75587689247999   -1.41607791987398
N          -1.74576978394800   -0.69186022278464    1.13275792590829
H          -2.62898080241441   -1.12300804903441    1.38337121039942
H          -1.53431798204364   -0.84027974363444    0.12356855798542
H          -1.75045065895196    0.32325166632870    1.31701521426488
