    26
        -50.44464818  Gyration_radius:  2.46758793656 Dipole_moment: 4.725
 S          -0.29614925587839    0.93780002693076   -1.23080915734308
O          -0.88013490206455    0.08056327340001   -0.21524324267822
O          -1.13146639328060    1.96976929692985   -1.72013137361780
O           1.01047746734536    1.52812150781898   -0.61990902200202
O           0.26884691217794    0.09060005109364   -2.36950038675879
H           0.99897831278759   -0.48417346492187   -1.95559563780359
H           0.97587830680347    1.60574906348938    0.37516055655892
O          -1.40118535089647    0.63314067180106    2.38170501261436
H          -1.53929300192040    0.53826580839837    1.42383814792566
H          -1.29007664394383   -0.26739110357995    2.70697043009812
O          -0.36505240353168   -1.94644040768318    1.47733337318525
H          -0.47671146120952   -2.81685940817833    1.09207597136916
H          -0.59483326360533   -1.30405424802780    0.77931717550910
O           0.95261717129560    1.67753458860047    1.97126050121538
H           0.99031853527759    2.58320268182932    2.28429945479469
H           0.05778468489074    1.31736252681513    2.23458656449111
O           2.12069297721019   -0.84710967889681    1.36940219661944
H           1.96821790268644    0.05913107486892    1.66331822674705
H           1.31025538918095   -1.34108249389768    1.59795263135938
O           2.12758717602377   -1.20904149222358   -1.23444533639552
H           2.96403925821247   -0.87887677834834   -1.56881430370598
H           2.15204826903845   -1.07028921192395   -0.24724765311496
N          -2.69694629504039   -0.40029202609649   -2.59841299363395
H          -2.35457825881688   -0.45156250994200   -1.64770355460216
H          -2.96978407133301    0.56427553046034   -2.74659177171437
H          -1.90153106138063   -0.56834330874577   -3.20281579918275
