    26
        -50.45168707  Gyration_radius:  2.51570466355 Dipole_moment: 5.416
 S           1.17045219737670    0.42830402411149   -1.17275518027200
O           0.84985259646639   -0.82154034655541   -0.51851022044281
O           0.82966615263459    0.47365989741129   -2.55766707453191
O           0.41788339167430    1.55695246227261   -0.39754189810370
O           2.61722686900694    0.80566964031062   -0.95843994976707
H           2.73642908783479    1.03040010636742    0.06056754414529
H          -0.56732980969710    1.47717570710516   -0.58030687939948
O          -0.53853639727529   -0.63451614629757    3.14967661820211
H          -1.01791873372447   -0.77603889001342    2.30194893522572
H          -0.87037394667686   -1.29443204981852    3.75995617017389
O          -1.56449976615499   -1.02285168045536    0.70587639409210
H          -2.00880106186234   -0.23195799242543    0.38278974464656
H          -0.71359607653743   -1.06429072226188    0.23255688184395
O           2.67319101081890    1.28483122516270    1.48534349488759
H           1.87215863628627    1.79939931395077    1.62167189707054
H           2.47795074005279    0.35570976121022    1.82828414135462
O           1.86878018987603   -1.09987817931566    2.02140209715136
H           1.56667834311022   -1.25533118803702    1.11209372552749
H           1.05393453377756   -0.95989087736834    2.55032488298908
O          -2.07538035872499    1.23379037659142   -0.96114203572793
H          -2.03562362358135    0.47708774497562   -1.64022136531317
H          -2.41754378501025    2.00333183196896   -1.41991504581977
N          -1.70820827553306   -0.75029167534441   -2.60761670169419
H          -1.67332249875075   -1.62599428053821   -2.10037879216508
H          -0.74768943694435   -0.47828295080851   -2.81804900604461
H          -2.19537999849474   -0.91101512209842   -3.47994835797271
