    26
        -50.44627743  Gyration_radius:  2.47554753285 Dipole_moment: 6.973
 S          -1.28004996195102   -1.71094886392408    1.17982354553633
O           0.11104169493571   -1.57575971868915    0.80012355873013
O          -1.52879896654244   -2.44443111573896    2.36739139416915
O          -1.86129662708521   -0.25431115250663    1.30548003564443
O          -2.09051937536394   -2.24505142195835    0.00809271176141
H          -1.89647362056034   -1.58037105075480   -0.76089093027969
H          -1.20914643259522    0.36098554125398    1.72324324208651
O          -0.13683533196388    1.51981697004682    2.16562150450575
H          -0.11474997125237    1.63561939794066    3.11657514752760
H           0.74565022420503    1.09744800193394    1.90458500064274
O          -0.82317729319064    1.95771855871129   -0.50927353643772
H          -1.65433510998274    2.42070172894538   -0.62874523902577
H          -0.66416349601299    1.91405311347388    0.44690700899874
O           1.94578199840905    0.29157730583398    1.30918764231340
H           2.08809833133778    0.65093942475474    0.41481248521556
H           1.43811797718771   -0.53219419874893    1.17611516777439
O          -1.44465288464473   -0.54915246166683   -1.73318153756006
H          -1.29663481719147    0.28331465867712   -1.25786365424917
H          -0.53110846906120   -0.87844424909032   -1.97310394340576
O           1.84335097298627    1.46692581111216   -1.19485469577163
H           2.26478114776886    2.31595012881476   -1.33757013285026
H           0.89014015668766    1.63507626843808   -1.12536091123605
N           1.05896932582925   -1.37758477169949   -1.94276195823488
H           1.68534909479822   -0.58100507367196   -1.95462636892502
H           1.45796609435594   -2.10876451454971   -2.51552603711611
H           1.00269534889698   -1.71210833693423   -0.98419952981973
