    26
        -50.45465428  Gyration_radius:  2.46311972356 Dipole_moment: 5.242
 S          -1.07618065961423    1.50195213698546   -0.79002836988592
O          -1.26258550438761    0.31122787711473    0.03444194631178
O          -1.37391210177075    2.71018557046227   -0.10021561970644
O           0.35503136777123    1.48163049277975   -1.33793759688478
O          -1.92036607242130    1.37890119249917   -2.05561755098809
H          -1.49406317280949    0.68723456343760   -2.67317700764982
H           1.06158955337261    1.42861529777823   -0.57492962847811
O          -0.23781739505990    1.58526783936195    2.20410399189371
H          -0.50774225251493    2.50171286241489    2.09432605114422
H          -0.75623495759443    1.10345311358826    1.53742245625791
O           2.01104896961723   -1.47912160206193    0.60688995578333
H           2.73708169875776   -1.99374264543156    0.96090652087803
H           1.24495779533449   -1.56739164494636    1.24460093066152
O          -0.05069018528646   -1.67024621854647   -1.29951192512372
H          -0.55348519110885   -1.03406630594628   -0.75748528079813
H           0.83603137027088   -1.68104922741038   -0.91266856789443
O          -0.87298069073815   -0.46115495535888   -3.47135240788835
H          -0.42361363012995   -0.97919834131360   -2.75398356046636
H          -1.56334193709241   -1.02809550614327   -3.82329122293492
O           1.90728024126874    1.21781275364389    0.61195141412169
H           1.27932104824064    1.37546518665437    1.34950077521305
H           2.07313923460088    0.25095464989810    0.59051231537955
N          -0.11205208904364   -1.47714427247489    2.21029686497478
H          -0.00014603512047   -0.73810099727819    2.89541141336377
H          -0.50922891780197   -2.28306471183990    2.67657010516309
H          -0.79104047669926   -1.14203711794280    1.53326397755735
