    26
        -50.45567509  Gyration_radius:  2.48629400122 Dipole_moment: 4.026
 S          -0.24814715068114    0.73807238386330    1.61591703917158
O           0.71791417791800   -0.32428040134558    1.42972202494214
O           0.32104436164263    2.02248424334003    1.88825860336200
O          -1.12130428624652    0.82039173777586    0.34129397766272
O          -1.24646315601572    0.34554075968953    2.68579187265473
H          -1.36381350669927   -0.68505782067343    2.56189017989738
H          -0.53519054425958    1.05512543140271   -0.49229383855070
O          -1.25834375735172   -2.08295495345413    2.12166576982913
H          -0.31920766473784   -2.05186686557121    1.89909039294753
H          -1.74370971625248   -2.08565721242192    1.24729656958370
O           1.55631945888702    3.28770614104545   -0.10262573993591
H           1.29810610291459    4.21080464537755   -0.07673153544463
H           1.20307565857687    2.88457788404896    0.71697702291693
O           2.17108057605003   -0.50340173464576   -0.75967133902906
H           1.69655592116022   -0.51644947300324    0.10075170202695
H           3.05683564440394   -0.18774511635960   -0.57067869822032
O           0.42542413579805    1.37345496786397   -1.55391929449301
H           1.10376704484344    0.66958154272864   -1.45430158546354
H           0.85435080232527    2.18712462409662   -1.20397307108340
O          -2.28497171407906   -1.68849483603947   -0.24378415298855
H          -1.58518101054184   -1.84255218854438   -0.92563452022344
H          -2.33867137776322   -0.73010298353635   -0.16043382936852
N          -0.28981994353996   -1.76434275951054   -2.08043706899005
H          -0.25216824953984   -2.53256105413280   -2.73854522738509
H           0.61979697150026   -1.68829807853139   -1.63871778127416
H          -0.43727875831220   -0.91109887345977   -2.60690748253615
