    26
        -50.44881373  Gyration_radius:  2.43084390533 Dipole_moment: 6.437
 S          -0.16129958840436    1.60188574205675   -1.42093269428824
O          -0.70361061058560    1.65454706868941   -0.06519569031493
O          -0.16360043490241    2.83435292088911   -2.11494979006232
O           1.27356258692391    1.00841868165495   -1.29224558958645
O          -0.90565046880897    0.54147637153983   -2.21065835501080
H          -0.81017804762620   -0.42440727355198   -1.74722717374443
H           1.59530293108934    1.25642475742446   -0.36968078154555
O           1.13692660691061   -0.83184312945537    2.30984378774072
H           1.16437783020893   -0.92801019075654    3.26334464196614
H           0.19746633297991   -0.85454948454082    2.05365012590849
O          -3.29559068441016    0.65694647577325   -0.38961423133930
H          -2.55359332469132    1.27391836955600   -0.33448262419187
H          -3.36064913617576    0.40800956182263   -1.31368534823616
O          -1.38234311819745   -0.50071617347946    1.31492454973110
H          -2.34605940153800   -0.48047861980605    1.27539763824520
H          -1.11604521559478    0.34247207321482    0.88392997563826
O           1.70365250078105    1.57745415399262    1.15711261356147
H           0.81785411795965    1.96552844076214    1.16776492760476
H           1.62919364733303    0.71897512259331    1.62333776213624
O          -0.67051342568965   -1.62678055614821   -1.03778383703518
H          -1.01812919318696   -1.41304658521795   -0.14729131736850
H           0.31314741634714   -1.78043433626000   -0.90902985884295
N           1.91163711565259   -1.79944257977615   -0.49390558223053
H           2.49650229432480   -2.59158373661420   -0.72394070024345
H           1.98355622242602   -1.62508525804826    0.50269840898679
H           2.26408303687452   -0.98403179632533   -0.98138084749703
