    26
        -50.45260136  Gyration_radius:  2.49762907292 Dipole_moment: 5.348
 S           0.20840684899025    2.22354623461677    0.56033912443254
O           0.56927076141171    1.49554983894810   -0.67957645811618
O           0.18027709024922    3.63580420789096    0.39684049297021
O          -1.07720113816948    1.66751869061235    1.05392056185933
O           1.29389420542620    1.85290541593372    1.61962937510995
H           1.33409077858882    0.87324660593729    1.69020427303777
H          -1.91647684563283    1.43954358084494   -0.26946592820080
O          -1.64603104563333   -1.49591293476793   -1.23084955181145
H          -1.92624988246272   -2.29727004209120   -1.67348569498012
H          -0.67139490394205   -1.36744831549374   -1.46386615761640
O           0.80536106614227   -0.94857729407070   -1.78418965238784
H           1.46722276584499   -1.46444656284645   -1.28037198905431
H           0.87201969670887   -0.03917376765637   -1.43607227989480
O          -1.18775337467215   -0.93216957246663    1.47975307078352
H          -1.41346091236169   -1.26012095076244    0.59513403929744
H          -1.24885920304553    0.04878005657946    1.42819671260870
O           2.64973182367854   -2.00101846806827   -0.10615530610617
H           3.48044719141686   -1.53656592495113   -0.22068792989356
H           2.23413832498306   -1.62991973636304    0.69381718358300
O           1.33793554373754   -0.79264573650203    1.96400535067656
H           0.36183618815113   -0.96151024499618    1.78857677772518
H           1.47168402846629   -0.95044777720179    2.90030859014357
N          -1.87026532732799    1.17834860800511   -1.30250507607768
H          -2.03797720181937    0.15580516990060   -1.41199809939754
H          -0.82043965699438    1.35414097964619   -1.40804806596650
H          -2.45020681167924    1.75203794930776   -1.90345335266552
