    26
        -50.44895842  Gyration_radius:  2.4793000006 Dipole_moment: 6.167
 S           0.30393501094400    1.34928409106460    0.70450934900694
O           0.96382365045503    0.34084325590853   -0.09064789839915
O           1.09053766063298    1.93853746234834    1.73573996179660
O          -0.30430049853836    2.41883741554746   -0.20542024820930
O          -0.94336618977317    0.71661800983522    1.36983161695927
H          -1.44246861984189    0.17520416186356    0.67662137609730
H           0.00015420233731    2.39006682498444   -1.18641973445357
O           2.26098764652491   -0.36671063492932    2.46636997662939
H           1.94232953551310    0.54694003582190    2.36724253975788
H           2.69875439795621   -0.57930456504647    1.63939092182307
O          -2.08700088524647   -0.86177609017604   -0.29505198302977
H          -1.32128474674249   -1.51387422646430   -0.20065874818232
H          -2.84002771850993   -1.26701944344887    0.14022756716427
O           0.04966521769402   -2.21075078449983    0.18709151640351
H           0.61178244561445   -1.43413416528515    0.02927026336487
H          -0.00791625626184   -2.26756926490425    1.16824202164967
O           0.22842789197360    2.34397487954487   -2.66962639716518
H          -0.48965952854226    2.81775773967182   -3.09519062249421
H           0.07549855147128    1.36181798806990   -2.83203085374349
O          -0.07890346453317   -1.68148248193149    2.80119616150772
H          -0.62906398567783   -0.89316436155141    2.83034982988018
H           0.83898710780138   -1.35004134431809    2.86984316019535
N          -0.22014042423919   -0.24015710815613   -2.71051351387675
H           0.04794912950071   -0.92568229303577   -3.40479003258320
H          -1.15141100675776   -0.46956588121975   -2.38266875891319
H           0.40271085622834   -0.33864921996487   -1.91290749117341
