    26
        -50.44937125  Gyration_radius:  2.50246626067 Dipole_moment: 6.205
 S          -0.06666927709592    0.57087702433955   -2.40935799984329
O          -0.17044715521129    1.69834904037142   -1.49966997406642
O          -0.63324480558418    0.75045818618361   -3.69344403977419
O           1.40843010118784    0.15805885801278   -2.48219266561485
O          -0.76318241051470   -0.64193928036245   -1.71759397236622
H          -0.08742525103945   -1.12160119612651   -1.11968177547763
H           1.87789131125102    0.51867749764559   -1.61989704487269
O           0.83517421055599   -1.75856496696148   -0.09899406744519
H           0.30947609944971   -2.39716977356619    0.40349643909222
H           0.99926139575153   -1.03911033949185    0.54990165804742
O          -1.25861394104387    1.62379001835771    0.84233515972916
H          -1.61932060271235    2.49365796245995    1.01937470736853
H          -0.87533943472453    1.66524128706445   -0.07237122091854
O          -2.53785598638149   -0.77635444093332    0.47058465776334
H          -2.24612666511072   -0.89977666287441   -0.44193942663970
H          -2.26218110912449    0.12859902469370    0.69834547223242
O           0.76292783437780    0.07738675420790    1.86179298210921
H           0.29994056959346   -0.64341360564032    2.31495198090166
H           0.06110548446938    0.70206593152741    1.60196396317306
O          -0.89960093856106   -2.17919950037136    2.02958644426252
H          -1.38636524244928   -2.75568445227726    2.61847113508151
H          -1.57663983902071   -1.70890207506092    1.48270970294842
N           2.39770222566209    1.22698123593158   -0.38307924030065
H           2.15474059005411    0.79446317847644    0.50233103859698
H           1.88553518551275    2.09740879631391   -0.46121463276038
H           3.39082768068885    1.41570147787662   -0.39640931113706
