    26
        -50.44773114  Gyration_radius:  2.53103420331 Dipole_moment: 9.211
 S          -0.84637990309169    0.24196312503820   -2.46648618480192
O           0.29735400616454    0.33534082002739   -1.56544249746357
O          -0.55438611651257    0.40072078900883   -3.84230073612781
O          -1.56350410960343   -1.08190760687555   -2.19838158476522
O          -1.86314282565057    1.33015553075906   -2.04199880590802
H          -1.92493570730991    1.38281650524257   -1.04459799429066
H          -1.22801596882009   -1.58572823425592   -1.35380629377946
O          -1.79537903617234    1.55290042499676    0.53573444259442
H          -0.93479361525114    1.99766748441857    0.58388369923667
H          -1.69141370348235    0.72766031887780    1.03788026006215
O          -0.97246057204732   -0.61527123264702    2.02949658806557
H          -0.03344382324372   -0.33103042710183    2.10143596587948
H          -1.21698897505028   -1.00846958136449    2.86820720257477
O           0.88908155148518    2.14513224379115    0.17775870053069
H           0.69322890228455    1.46509285379418   -0.52027048226362
H           1.36977010947329    2.84630524159317   -0.26438195926457
O           1.51194736460560    0.42695327459934    2.16669660043962
H           1.72243290871190    0.94791786184161    2.94356807801887
H           1.38303069680913    1.06441798040719    1.43311366622988
O          -0.74532824917165   -2.27839865181774   -0.14741319098002
H           0.24620764702621   -2.21654380571647   -0.19131374912676
H          -0.98928385807002   -1.72973537657366    0.61786503166589
N           1.85217821863626   -1.67072647745139   -0.17789576031602
H           2.63719950878463   -2.18122442517540   -0.55921909785012
H           2.13971741161235   -1.24877651429432    0.69711808626467
H           1.61730813800001   -0.91723213113809   -0.81924994515067
