    26
        -50.45617916  Gyration_radius:  2.50838968913 Dipole_moment: 0.807
 S          -0.23966921914419    0.93408736542532   -1.21179015938003
O           1.00298950260278    0.96372714103841   -0.46539527043140
O          -0.09381493785891    0.47091729326031   -2.55883255486749
O          -1.24699694382193    0.05797484504863   -0.45054428092905
O          -0.88695536393258    2.30565776627350   -1.20695835016264
H          -1.14166016395056    2.55616219745869   -0.23378787346156
H          -0.98848389311573   -0.95078094467962   -0.54324282751578
O          -1.39070475953018    2.93508180159448    1.16883836730010
H          -1.28524273716304    3.88413817270927    1.26643706381559
H          -0.60687862059681    2.50827388668972    1.64980155928484
O           0.17913204884648   -2.08382053857147   -3.24374792450500
H          -0.41858317421955   -2.25938307253812   -3.97253044765957
H           0.17754906688647   -1.11289603020534   -3.11968839086932
O           1.88320652894465   -1.43872828091008    0.25367165945132
H           1.64839378515526   -0.51346875654572    0.02602501552104
H           2.69200310073602   -1.63491520222107   -0.22254246832995
O          -0.46712002391113   -2.30865491220790   -0.67700795969398
H           0.41598150498622   -2.20960559065437   -0.26082883463428
H          -0.28592714890605   -2.41210570950755   -1.63947258859622
O           0.69771919358786    1.78167570296581    2.10442386901711
H           0.39831509093338    0.90457005254387    2.44707936235223
H           1.04791193182001    1.57937094669681    1.22076135127210
N          -0.19050713166969   -0.73754642408095    2.48048223785173
H           0.55262967650439   -1.26833863528405    2.04017844410885
H          -0.97276903072292   -0.71620721583118    1.83634548644511
H          -0.48051827235862   -1.23518586844894    3.31232551463234
