    26
        -50.45005505  Gyration_radius:  2.60817647566 Dipole_moment: 5.773
 S          -1.47827328809055    1.03920037035427   -1.65998706156987
O          -1.59290188264762    1.97426430525797   -0.55517511467863
O          -1.84316441636431    1.52989923109773   -2.93516353662674
O           0.00264562420084    0.53389409879349   -1.65331167107356
O          -2.25632488180980   -0.23733546579461   -1.34203144718416
H          -2.02871499109928   -0.60152456196238   -0.40399719911069
H           0.55160277010747    1.35352508823822   -1.34343559482763
O           1.32827936354379    1.26686061550309    1.64091743635442
H           1.40455399498455    0.35112958191666    1.32892020077081
H           0.42452981618782    1.35286721909270    1.98313981864521
O          -1.43000390512832    1.43258415747236    1.98785119716523
H          -2.04151418089655    1.97332443879128    2.48925404321763
H          -1.52766943094972    1.70229308473492    1.04153063192728
O          -1.58416065914109   -1.06997433995542    0.95156806764281
H          -0.62328521224749   -1.24402966589583    0.82738900360536
H          -1.63269354102090   -0.28229483808671    1.52356085111247
O           1.10056767431342    2.54752356968382   -0.64810297471875
H           0.26755967703941    3.01823920870803   -0.52685065646028
H           1.33140707293291    2.16691529762576    0.24439214980486
O           0.99860351011427   -1.14535689363346    0.30494329745558
H           1.40616785702363   -2.00308290832394    0.04387082092203
H           0.80126601189989   -0.67760905520968   -0.52178621531434
N           2.01553095994933   -3.51040490982803   -0.59378403350651
H           1.95846038477686   -4.24579040407593    0.09966976926493
H           2.98120565056542   -3.43094058526102   -0.88746877972238
H           1.46632604176784   -3.79417664921878   -1.39591300309589
