    26
        -50.44173864  Gyration_radius:  2.61729244853 Dipole_moment: 4.914
 S          -0.67622891768475   -2.57032577616328   -0.10033287094677
O          -0.54691490018170   -1.97669006173098    1.21353435159809
O          -1.83043894652007   -3.36444584573879   -0.31526542387091
O          -0.61979521139602   -1.41141128983312   -1.14926330167607
O           0.60921016713705   -3.32902828988123   -0.45292997800136
H           1.34405225601703   -2.73191794661673   -0.11722954860599
H          -1.34405684450376   -0.73897513123698   -0.96715433836012
O           0.94411692752656    3.13003472263837    1.69504689847117
H           0.16035792395642    2.59548128699912    1.87291779389401
H           1.32696037618273    3.35118308206811    2.54528962527846
O          -2.38711141277963    0.34225478327448   -0.47457442512200
H          -3.15941988489988   -0.11466248480060   -0.13561205761377
H          -1.85102456621272    0.62868113628037    0.31669718315599
O           2.08183340237936   -1.58307819809817    0.70998510505330
H           1.37211366731415   -1.60823323035834    1.36710285673594
H           2.05414342790778   -0.68330862112446    0.33538322546411
O          -0.70166292308006    0.67985453994983    1.49057219002811
H           0.11602547065481    0.78129249109159    0.94685187329378
H          -0.73229165013021   -0.27420391518192    1.67930578178167
O           1.50060830179090    1.00051920457294   -0.01409268339165
H           1.06715468488889    1.14237082936299   -0.89439970278603
H           1.66939450345705    1.87722091778420    0.36017699267465
N           0.08255548032527    1.25733719877286   -2.27958147547050
H          -0.85817014367394    1.48547431059067   -1.97939772896004
H           0.07277124978101    0.28581789215718   -2.56853122285645
H           0.30581752179046    1.82875837520182   -3.08449910977541
