    26
        -50.44447233  Gyration_radius:  2.77798769806 Dipole_moment: 9.315
 S          -1.61903513224707    1.02779024733222   -2.38702737939813
O          -1.83886340468657    1.24555950379489   -0.96330326688974
O          -2.44848993561123    1.76864134436651   -3.26175751687625
O          -0.12025106803524    1.28094562953336   -2.66949300769697
O          -1.79161746909253   -0.47430059400548   -2.67885936357770
H          -1.29210097277632   -1.01872390013055   -1.98611180770164
H           0.30152890117232    1.66817144426008   -1.83127044508690
O           1.17406105828129   -0.29656411695503    0.59118727824495
H           2.11961603493522   -0.45294057156494    0.81107224615357
H           0.67522108133092   -0.31449721154729    1.43388278839684
O          -0.54084839017667   -0.47731231438390    2.67062615451871
H          -0.62567026128644   -1.30806999278034    3.14111297089285
H          -1.33358869872282   -0.39937973833698    2.10620106121411
O          -2.56140998937581   -0.50620231332272    0.83299479386714
H          -3.51487117610277   -0.46796904253769    0.91998119690785
H          -2.32090623615237    0.19936106874131    0.18355627351354
O           0.64512404327370    2.11764414642101   -0.39692039094366
H          -0.29019984099778    2.18552916310924   -0.16131635889639
H           0.94624230945701    1.26329461479412   -0.00680055731021
O          -0.65902716917971   -1.74248095758053   -0.76578862758497
H           0.11243509111968   -1.25718091261918   -0.40691620228024
H          -1.36977398381466   -1.60721639641217   -0.11985118780705
N           3.82032155493154   -0.60202761899688    1.19537108524896
H           4.20087823153081   -1.50591428427830    0.94418623374186
H           4.04068689534647   -0.42636315383966    2.16788790052215
H           4.29053851686593    0.10020593693732    0.63735613883224
