    26
        -50.43964512  Gyration_radius:  2.7289558873 Dipole_moment: 11.044
 S          -1.23532553454889    2.81462474998163    0.69633122828877
O           0.04271650173390    2.50820632346921    0.10856415847840
O          -2.00668364181555    3.82871720714867    0.07960932408425
O          -2.03625437018902    1.46856866858243    0.79185466498486
O          -1.03684250431245    3.14589030747539    2.19693842883238
H          -0.61101986960568    2.33716328519517    2.57298401975342
H          -1.80347485397252    0.86979212171733    0.00590245050916
O           1.40752204928952   -0.84858489425662    1.23049823433172
H           0.81403474967954   -1.51324373541892    0.82665885208759
H           2.06879868588700   -1.32655761355043    1.73286210576290
O          -1.28160343875728   -0.13067881578745   -1.04607603696339
H          -1.15660626433335   -1.00357281898399   -0.64169143466063
H          -0.37152495242805    0.18725881416599   -1.24165597447276
O          -0.16245339385244   -2.54680086287178   -0.18274213046610
H           0.30249915996194   -2.44112479868135   -1.06650070461708
H          -0.47897224140283   -3.44908129323487   -0.13322937463555
O          -0.27139674567799    0.71446189682230    2.78251911787257
H           0.42313625455838    0.30922569982394    2.23257460982428
H          -1.11012691654516    0.46956831082590    2.37550710384800
O           1.32614958982109    0.58998855526360   -1.17994002824174
H           1.59040908526102    0.16525392934151   -0.34936347759537
H           1.03262196022580    1.47556514899717   -0.90007991177527
N           1.02975795018082   -2.02847688126063   -2.49987371340703
H           0.36669661410124   -1.99864497849153   -3.26496285767938
H           1.84974580604161   -2.52954559547339   -2.81836580979508
H           1.30819633068503   -1.06797273081388   -2.30832286434427
