    26
        -50.45267338  Gyration_radius:  2.5773581838 Dipole_moment: 4.150
 S          -0.13190301887700   -0.18998662963462   -1.67342889842881
O          -0.14651026032723   -1.29583353982295   -0.74284821448146
O          -1.23238669402217    0.71858394031616   -1.52865676406407
O           1.20561253491395    0.53770637659893   -1.55485925217454
O          -0.09979660811215   -0.72653750004374   -3.10944879451994
H           0.66838209631188   -1.39949732583431   -3.08311038820993
H           1.36793227508189    0.95108699456440   -0.58673177725288
O           1.55404673268360    1.46217774035721    0.71982974704879
H           1.42672250653907    0.76936273074231    1.40707729542160
H           0.84246859867483    2.10882213484849    0.93896454865947
O          -2.64207346976356    1.26905385966085    0.62334096476459
H          -3.46438719495033    1.68744872500674    0.36326279626270
H          -2.15425308103607    1.08108312190442   -0.20924195337669
O           0.72531409642274   -0.11054407657797    2.71355300625225
H           1.19091423866920   -0.84506505431103    3.11360706499396
H          -0.12602659365733   -0.48396722435446    2.36567651440866
O          -0.56731773631182    2.60042448198650    1.83588618368639
H          -1.36092601979940    2.21067442479607    1.42664094141243
H          -0.39585657992024    2.07916615284727    2.62597445094377
O          -1.46591264353846   -1.06624200789719    1.60501665602445
H          -1.05577631218819   -1.28847195435469    0.74955614491822
H          -2.06159857246809   -0.32596159994674    1.41919269655334
N           1.82066218666723   -2.31694039483686   -2.51696917670625
H           2.68468207384616   -1.79740372350922   -2.43678965630714
H           2.02150319872074   -3.24357381897846   -2.86896908836844
H           1.39648422644678   -2.38556582352091   -1.59652503747110
