    26
        -50.45004613  Gyration_radius:  2.53773442242 Dipole_moment: 6.016
 S           0.83278348897525    0.91439169455027    2.30876972257444
O          -0.30721847270810    1.03267080595829    1.42609648048645
O           0.79872681431973    1.64022135095713    3.52063997967624
O           1.06205138197461   -0.59080404997427    2.60600805215878
O           2.09988296153099    1.32414360687002    1.51185061062589
H           2.02287429842127    1.03795101621504    0.55815832846379
H           0.60939189702362   -1.19038085126972    1.94645408022674
O          -0.01433726162656   -2.28780177699779    0.97420319912817
H           0.23512770704195   -2.06471128906336    0.02307266999302
H           0.39273805880427   -3.13284523042632    1.17179445016351
O          -1.88181221805111   -0.52265533641057   -1.94688409602483
H          -2.55859073983578   -1.03423390805311   -2.39143141225189
H          -2.10944650641854   -0.54358152906065   -0.97898715067721
O           0.56638115981739   -1.61427773625536   -1.45172878797466
H          -0.28044234163300   -1.23694850857629   -1.76604651693747
H           1.16950773993106   -0.85894679129994   -1.36166790142682
O          -2.26387957217825   -0.66577066364173    0.66194608183541
H          -1.70962993372970    0.06054721293455    0.99908623623943
H          -1.77511569376485   -1.46405523380379    0.90106397416541
O           1.91446556984268    0.74997605987047   -1.01092209597835
H           2.62113508604530    1.20952991296069   -1.46710487485363
H           1.04183941186484    1.26378380913457   -1.20164275205949
N          -0.35879773962527    1.92779740484791   -1.30368083638504
H          -0.99096267304052    1.30308105835618   -1.79525053789376
H          -0.52718259779346    2.87312814763027   -1.62027263460875
H          -0.58948984507527    1.86979080434866   -0.31352424869109
