    26
        -50.45239899  Gyration_radius:  2.48618909312 Dipole_moment: 2.087
 S          -1.68733522617840    0.28462160867293   -0.59424918136083
O          -0.70802191745801    1.12391853710954   -1.25579549280210
O          -2.11782446858223   -0.85508763136336   -1.32734648676972
O          -1.09056513491451   -0.15397795153915    0.76108331207652
O          -2.88776269132780    1.13596005746437   -0.17181604336346
H          -2.46109822419323    1.97628384630985    0.19656812903281
H          -0.05770730265179   -0.09382174633906    0.79492931526479
O           1.42680193953468   -0.06742184642767    0.90852310637591
H           1.53835942608557   -1.04142876971600    1.08955851544134
H           1.72896922995203    0.05745147669323   -0.01562665998998
O           0.21474276858926    1.94969056080132    2.44038607606072
H           0.86372226208065    1.38044409109805    2.00074044346051
H          -0.34042076799553    1.36590583117337    2.96155266468544
O          -1.36909187235326    3.04458254813914    0.54354518933640
H          -0.84599174083990    2.82864709117169   -0.23965447113671
H          -0.81796248609572    2.77966872292541    1.31319275170333
O           1.26012661419422   -2.65958584970274    1.08693951656161
H           0.95336506364515   -2.69618801077537    0.13643662196501
H           0.49917845973348   -2.90006292795991    1.61786085309688
O           1.74946352638317    0.30194432631688   -1.74270336908012
H           0.82267300137974    0.62296195218222   -1.70914497066327
H           2.26718226882268    1.00170569505948   -2.14473234660053
N           0.35239833337779   -2.41932717070597   -1.40654842083978
H          -0.57707397916795   -2.00355451470679   -1.38640813057631
H           0.31188856756123   -3.22313111566817   -2.02105952570921
H           0.97198436063699   -1.74019878027940   -1.83623139618396
