    26
        -50.45007770  Gyration_radius:  2.54442230896 Dipole_moment: 8.989
 S          -2.07941419856080    0.93778042137445   -1.00912033039788
O          -2.10132370036987   -0.15380264310083   -0.03237550303030
O          -3.06344894248937    1.94118408491457   -0.80822223845874
O          -0.62269390588680    1.58783714909186   -0.83646563068584
O          -2.02432442373917    0.38296044928726   -2.37774985510908
H          -1.21573647901981   -0.67682203792137   -2.38224041765597
H          -0.65589734528050    1.85549090661357    0.11891725478988
O          -0.04520863935726   -1.59965528987372    0.63841207693849
H          -0.88261197808907   -1.10977252016548    0.44233005669796
H           0.20449020150292   -1.32545424835933    1.53035163153646
O           0.97531834714981    0.01760890171406    2.69689626394643
H           1.76032046998888    0.27121064673958    2.16029140608527
H           1.17973350222961    0.24848652760420    3.60410458969123
O          -1.01900795046101    1.65334659168828    1.71046585290091
H          -1.75759848842731    1.07483727849107    1.47658085846749
H          -0.33775131116324    1.08162329270610    2.11563273786430
O           3.05206919199779    0.56806196904587    1.07837058317026
H           2.61564249887724    0.40284900573296    0.21730794345876
H           3.85664729598017    0.04782018675152    1.08105343896397
O           1.44106275335815   -0.17000828465807   -0.98277048433149
H           0.86617414499521    0.61636188256241   -1.03796249674236
H           1.00786904237357   -0.73977083132509   -0.29045922743946
N          -0.45596217883041   -1.55873721760186   -2.31536986697094
H          -0.74096896950368   -2.15562347002281   -1.54111062541974
H           0.45802481685684   -1.12159406285049   -2.07068463551509
H          -0.41540375411257   -2.07621869845427   -3.18618338274627
