    26
        -50.44245906  Gyration_radius:  2.56265342313 Dipole_moment: 7.920
 S           0.89901431442919    2.37319237143023   -1.01398343446627
O          -0.35040823611654    2.37575063198499   -0.28136079902873
O           1.61785744999396    3.59174045556671   -1.02671982523399
O           1.75682398024366    1.20217124700001   -0.42778453135791
O           0.65694236525699    1.88647352590654   -2.45300507896576
H           0.28304158928547    0.95877590563715   -2.38833824154598
H           1.68289202232360    1.32365137475509    0.57083383456822
O           1.08161892223321    1.68643397589786    1.98218049626926
H           0.61184227115652    0.86263684056768    2.23864574502632
H           0.40782317959024    2.27833230236865    1.62445162029260
O          -0.31318317391820   -0.44788543249179   -2.03578699013971
H          -0.87143677347778   -0.91375417901509   -2.66220364596166
H          -0.86254292186329   -0.30054250066014   -1.23110571779883
O          -1.75418087184428    0.15914658828156    0.15976904474081
H          -1.43151499507207    1.07075861067466    0.01007225869245
H          -1.35336653626574   -0.10481540357392    1.00525035689161
O          -0.19790534457235   -0.65849390791708    2.29126546598909
H          -0.17965824872310   -1.19490665351907    3.08421614579389
H           0.32321169914551   -1.15737962744756    1.57854074761150
O          -1.85596199530603   -2.56842369530914   -0.61688993163602
H          -2.06646552491937   -1.67431292505424   -0.31215467860766
H          -2.53952061355821   -3.14410557003364   -0.27229828941498
N           1.02580278141933   -1.81796558822544    0.28894340932261
H           0.28155422735744   -2.26850445746577   -0.23654863040426
H           1.78475345636399   -2.47894302881779    0.39266465726582
H           1.36296700684001   -1.03903084054479   -0.26865397789803
