    26
        -50.45153253  Gyration_radius:  2.67030571413 Dipole_moment: 2.593
 S          -0.15042855509726    0.37860904687615   -0.93766514610210
O           0.67175668432078    0.62502743358638    0.23505836631295
O           0.57465050093052   -0.15116417011887   -2.05182229536851
O          -1.27126170026296   -0.60563690331440   -0.52059486565269
O          -0.89042093925122    1.62258262895924   -1.34614345369105
H          -1.34401045255809    2.12023677823264   -0.48971628956464
H          -0.82969636450779   -1.25823074918346    0.11532402058739
O          -1.14721869381293    0.63680505837896    2.22044630701680
H          -1.46554124838459   -0.26602616886252    2.28446682465978
H          -0.37241368939692    0.61034220054176    1.62994523266962
O           0.70570375517867   -2.68838946857621   -2.82648705281729
H           1.42521952434081   -2.70042040554126   -3.46060605761329
H           0.58453222843349   -1.74714323363310   -2.58452451908843
O           1.01641303727350   -3.92416998496682   -0.48840969625435
H           0.94020589901177   -3.50053936973526   -1.37594920581593
H           0.44352266331108   -4.69255170138938   -0.51244137324136
O          -1.76261576915330    2.73609323524229    0.67749017482083
H          -0.91667082067733    3.21473492302862    0.90282066091461
H          -1.81215735003772    2.01200546075844    1.33667577886284
O           0.13865988546030   -1.98999071128735    1.06440269440364
H           0.84660226272147   -1.33604962256225    1.08923644830269
H           0.49574449890811   -2.76815537940900    0.56087015921639
N           0.76041230540405    3.45002157021599    1.11038906178781
H           1.03164470359168    2.51258265069936    0.82120997117099
H           1.10749294726516    3.59918939433772    2.04932742528149
H           1.21987468705099    4.11023748771416    0.49669684919975
