    26
        -50.44566010  Gyration_radius:  2.52634860522 Dipole_moment: 5.238
 S          -0.63406191338263    1.72714620688321   -1.71211739356466
O           0.71804571114221    1.61866796545378   -1.21102163493884
O          -0.78372238245286    1.93835611037580   -3.10431732016942
O          -1.38485939920174    0.42019940907522   -1.28539263391116
O          -1.40840419746999    2.77158360808800   -0.89703803528897
H          -1.09631089112854    2.61714153793651    0.04726901368592
H          -0.85379942415395   -0.40055390324655   -1.54429496193734
O          -0.05140606805206   -1.70889438054657   -1.79564899035451
H           0.04805265640943   -1.86801008148454   -2.73596470161115
H           0.86376434327741   -1.40649192420759   -1.46259069762992
O          -0.88700237114825   -0.41696317273939    2.20831311358790
H          -1.49442913535821   -0.43207270683735    2.94957229236466
H          -1.28589552586241   -0.99164891693494    1.51160827589714
O          -2.00332346329705   -1.86104478216394    0.26482448175563
H          -2.44362231346912   -1.15464575004950   -0.21911391210357
H          -1.30437043185714   -2.17484515448304   -0.32466281083342
O          -0.23294203791237    2.05538606333497    1.25379403453638
H           0.48306179061460    1.86444037017635    0.62834907300905
H          -0.51142821155308    1.19081287785848    1.61896767926660
O           2.13255217959926   -0.67869586062253   -0.98721388773853
H           1.85200988194705    0.23524789248708   -1.16347301761613
H           2.17945420144178   -0.74305103769512    0.00046771662627
N           2.05429939037487   -0.66675773164009    1.71792025959680
H           2.48438337592210   -1.45985523519057    2.17645472880145
H           1.07331783624967   -0.64849896953607    1.98280239474734
H           2.48663638930368    0.17304756570723    2.08250690380671
