    26
        -50.44883020  Gyration_radius:  2.50918337693 Dipole_moment: 5.115
 S          -1.38743199930781    1.14910950997508    1.37631657225969
O          -1.39031397157075    0.80974284157803   -0.03319676868861
O          -2.64762543251596    1.47647557056377    1.93272920971698
O          -0.73443353406025   -0.03896121802996    2.14472221615263
O          -0.36803751235261    2.26668039353989    1.61665936217832
H           0.46637775318996    2.05609630427348    1.08474312696780
H          -1.29497860570903   -0.85110418757378    1.94798754776412
O           0.63785399114870   -0.79989975702356   -3.08076332161875
H           0.15519988921855   -1.24092657674657   -2.35091300187227
H           1.46989744034111   -1.26377905472545   -3.18000847496896
O          -0.48665381465806   -1.59438004569582   -0.74591406696278
H          -0.85276070495208   -0.69631517268523   -0.62043893666005
H           0.36279104350507   -1.57673437863332   -0.23411664451831
O          -2.15253488748121   -1.99609979548007    1.29079633230633
H          -3.00603215221565   -1.64370646181757    1.02864587562001
H          -1.61959703790191   -2.10590085880519    0.46696135716474
O           1.69990764616217    1.81054854787308    0.16245129485164
H           2.19810021939807    2.63052464315414    0.14585165117317
H           1.23229763346477    1.75205251037880   -0.73393031963928
O           0.31556745267634    1.66829791397590   -1.99770450282107
H           0.47656230439333    0.86119519392647   -2.52893207356694
H          -0.50963028048286    1.49816583113900   -1.51744821485962
N           1.69393561037316   -1.15613819104874    0.76571870159002
H           1.23714142071935   -1.08959371161452    1.66861387694922
H           1.97233871973480   -0.21290497500139    0.51337947578650
H           2.53205881893208   -1.71244490548488    0.87778972572376
