    26
        -50.45006253  Gyration_radius:  2.45120373927 Dipole_moment: 6.410
 S          -0.78162679603810    0.25996959137630   -2.01069004085668
O          -0.63662080628252    1.59600956031802   -1.48020811793168
O          -1.37466595037087    0.12423780827065   -3.28623347934877
O           0.62605086566483   -0.41159152113102   -1.97167594722253
O          -1.58166376359763   -0.58644719539171   -0.99308325922058
H          -1.00572243458602   -0.81078979535386   -0.17474362147130
H           1.25640048510826    0.26751251277575   -1.55264376333048
O          -0.18196367547792   -1.19184121704689    1.03659150035485
H           0.46445394138269   -1.83611023871786    0.64303422536718
H           0.34940217611643   -0.42533967527893    1.33322865167337
O          -1.12631536306260    2.23546018171094    1.09390125884905
H          -1.07570548609943    2.16615064989124    0.12297529250463
H          -1.81743836398826    1.60105445657260    1.37058337254880
O          -2.71489636621524    0.06833330838215    1.57853175203255
H          -2.02741915738924   -0.57783459076407    1.77932627442106
H          -3.02785324479272   -0.15080734873134    0.69570886416971
O           1.95603641475831    1.43476294417353   -0.84743615313286
H           1.25889460013015    2.05394561639080   -1.10876724372061
H           1.83371769719312    1.30383260476895    0.11545941280338
O           1.09945803430368    1.09555399896894    1.69128692654805
H           0.25008995069693    1.61872072539147    1.52667506602049
H           1.44089108852014    1.39097921790280    2.53584856367678
N           1.55379739188319   -2.70398453363347   -0.32311503509219
H           2.53872236784381   -2.66693689976851   -0.09257709783291
H           1.41486752045089   -2.18439546900157   -1.18496257741213
H           1.30910888385815   -3.67044469205854   -0.49701482440903
