    26
        -50.45006248  Gyration_radius:  2.45120038209 Dipole_moment: 6.408
 S          -1.34404831323498    0.83534775740551   -1.48859128696084
O          -1.40691069863246    1.74139594416888   -0.36495409848097
O          -2.20926577301106    1.08436082327412   -2.57786158919505
O           0.14344588018387    0.77540132425126   -1.95535784302478
O          -1.58828787752903   -0.60202271194405   -0.97250788276914
H          -0.77187714932274   -0.94618247512018   -0.45611334889675
H           0.66818966039531    1.36985710847266   -1.31861102183814
O           1.20340713174811    0.53150344266236    1.88075306721463
H           1.67669306792428    0.51602770531543    2.71317551962913
H           0.23695421443748    0.72719914369540    2.10412087638978
O          -1.31568681593367    0.93023578630965    2.20574216590234
H          -1.71686717702132    0.03835796862903    2.18959103575670
H          -1.51856279974795    1.32838616648856    1.33950629906164
O          -2.09763034198091   -1.63135769266634    1.67493663204600
H          -1.23958688485119   -2.00184546285051    1.43609344372390
H          -2.57516907950764   -1.52653944857665    0.84650758219867
O           1.21039177071205    2.25951116350203   -0.19461662497605
H           1.39609792258333    1.67544909638727    0.56935955372299
H           0.33333411665984    2.63147620371445   -0.02095726485588
O           0.42255257067316   -1.50597003293964    0.28642581271416
H           1.07814542449180   -1.62353170158739   -0.45129595988913
H           0.80011348881585   -0.82112481402943    0.87493929726379
N           2.04355299973807   -1.50729142962740   -1.83967768556537
H           1.54510190502993   -0.74416584407863   -2.28824380378164
H           2.01543856989238   -2.30691752227415   -2.45925159095618
H           3.01047420748333   -1.22756049858460   -1.73311130444055
