    26
        -50.44840780  Gyration_radius:  2.46539303078 Dipole_moment: 5.054
 S          -0.25970821427074   -0.83200635581460    2.06840289646321
O          -0.37169449961129    0.56259335858446    1.69071400814616
O          -0.51112136005431   -1.14560369446102    3.42457922211218
O          -1.21390709902433   -1.63692472262946    1.13646555026690
O           1.13672716482203   -1.33742898551201    1.67497927285781
H           1.24779992187085   -1.31967563393714    0.64476956119250
H          -1.64558345801919   -1.02999916348571    0.46577746260255
O          -0.91134248763271   -2.26699227988795   -1.78570478403763
H          -1.54442599137979   -1.54710047474345   -1.64441760676494
H          -1.11407010277091   -2.93195046882245   -1.12319317291868
O           2.13160049768146    1.38940682852959    1.32552306730920
H           2.62363035451514    0.62549051535808    1.63728055262924
H           1.19870393403165    1.20348260767865    1.55528637876743
O           1.37748258974245   -1.25130297769517   -0.82102895709552
H           0.59070068613501   -1.63082138494361   -1.27209267818027
H           1.46957240484464   -0.32330139692399   -1.12087677411902
O          -2.38717577822792   -0.21328982807372   -0.68226408017010
H          -1.85741131751163    0.66065896925506   -0.77172474492102
H          -3.26353166476007    0.02813420317814   -0.37869813300842
O           1.85131524620301    1.36824778277415   -1.31863593978746
H           2.00771574774825    1.49254082251568   -0.35011359907179
H           2.69239813473832    1.52164324098928   -1.75154791225372
N          -0.99403784937637    1.96505535063153   -0.72478134820221
H          -0.13197987229272    1.88173562935408   -1.25417009148511
H          -0.74652417764453    1.87880831960834    0.25797398746341
H          -1.37513280975751    2.88859974846234   -0.88250211777764
