    26
        -50.45161643  Gyration_radius:  2.48235890496 Dipole_moment: 4.482
 S           0.81261833864319    1.18646074288895   -0.61371448242066
O          -0.50971525526779    0.59569837590534   -0.58549711789580
O           0.91470952346741    2.42014445785590    0.09642435301968
O           1.81914672632686    0.15436423675433   -0.06159321886750
O           1.26646813650452    1.35433327061746   -2.05375187049375
H           1.24589793721889    0.42251079059696   -2.48194054117564
H           1.67153525457026    0.00058642825826    0.92912312028375
O          -2.24947717681289    0.85023529644704    1.56849955296038
H          -2.13541508156652   -0.09285502550828    1.75167436230674
H          -1.88255905098897    0.97174004218852    0.68108890392773
O           1.35833244096803   -0.14327540413492    2.43000119159814
H           0.79494625343527    0.68318739577478    2.61079823417394
H           2.15272419197714   -0.04776798526133    2.95882397427046
O          -0.04451377145236    1.98808391015410    2.60527927131444
H          -0.96177324071739    1.70028741249851    2.40099845345120
H           0.27952846467694    2.41517624689289    1.79430629096198
O           1.09905657761931   -0.93431013517241   -3.11203363707989
H           0.93863523079901   -0.83092237955169   -4.05273128114747
H           0.27299243210671   -1.36047559477653   -2.71951627593504
O          -0.76624259047263   -1.56140768480451    1.12543818577273
H          -0.05380155188729   -1.45958477750782    1.76465490376184
H          -0.61505486949556   -0.87465705524666    0.45798298970499
N          -1.13317928526069   -1.84099513415232   -2.04161802517556
H          -1.37413556272069   -0.94040569426515   -1.63685749679310
H          -0.96442580123136   -2.46935531953405   -1.26397496803333
H          -1.93629827094542   -2.18679640719388   -2.55186489227686
