    26
        -50.45296990  Gyration_radius:  2.4527599461 Dipole_moment: 9.677
 S          -1.55863269635354   -1.17723024931486    0.82548852298255
O          -0.25431323493452   -1.36671242684422    0.18260877775808
O          -1.74668351852165   -1.99799247073274    1.98263473455558
O          -1.54973569740291    0.35173843761427    1.29574598438052
O          -2.60462109771932   -1.20608051100741   -0.19712481500526
H          -2.03410278013602   -0.15467101526634   -1.00265732427948
H          -1.10797922641844    0.33827593420272    2.18848037611330
O          -0.18751324700953   -0.23191982766192    3.40886318997041
H           0.67049797251090   -0.22151282372967    2.94390194127260
H          -0.58180187640560   -1.10654256626208    3.26816251000609
O           0.85349578256347    2.15134719792988   -0.36850139383751
H           1.07903773095869    1.67673848971468   -1.18259330399892
H           1.42020708730695    2.92256419038240   -0.32362430815497
O           1.64678893651635    0.00605494215846    1.36823387967351
H           0.96533064823170   -0.57559317333129    0.96733751007640
H           1.43774441979161    0.88245153481246    1.01762796909945
O           0.93309842171547    0.43339295892262   -2.59058106968774
H           1.36767156262065   -0.32014704914868   -2.08937330442425
H           1.08307821051879    0.24717729188379   -3.51843926856895
O           1.97195174782040   -1.51186930965809   -1.21633062686059
H           1.12526649329946   -1.74680030544689   -0.79040834831045
H           2.51261322943773   -1.17689457245140   -0.49169227649585
N          -1.49769082488554    0.74177845891289   -1.36966145513509
H          -0.65080207625248    0.49556880842466   -1.92685647195489
H          -1.17884842604891    1.18401989606688   -0.49652584105457
H          -2.11405753113793    1.36285814982634   -1.88471559814295
