    26
        -50.44652628  Gyration_radius:  2.49905003227 Dipole_moment: 4.754
 S           0.29425622793221    0.35490765564844   -2.23835440358749
O          -0.16479227540563   -0.61427544889640   -1.26716766546918
O          -0.39112306202036    0.35607621913527   -3.47783023146738
O           0.26396987981647    1.75578142061640   -1.55758629504541
O           1.80586302789881    0.16022451893513   -2.45145075671643
H           2.21827662717086    0.40013449086091   -1.56896138704428
H          -0.64453168364446    1.88728755860846   -1.12280006279176
O          -1.43143928804037    0.64019203642271    1.79054615763430
H          -1.79875869390009   -0.18750260465846    1.41918076623850
H          -0.47535449682424    0.48383811326170    1.86883647064898
O          -1.93132216453847    2.05729383010633   -0.32771779077162
H          -1.76788365894451    1.54592165670969    0.52223432893055
H          -2.07931176327348    2.96975144908076   -0.07171549294076
O          -2.29031055241854   -1.38077001967349    0.20589879446278
H          -1.55266911083743   -1.15440699201997   -0.39204400121782
H          -3.08706464740478   -1.10326428880924   -0.24945223868164
O           1.24996167394422   -0.09313810960970    1.91818209475888
H           1.05149560802152   -1.01029558757231    1.54875606836247
H           1.72919965793317   -0.21988442273234    2.73834171122479
O           2.56625694013352    1.01670680412373   -0.14793645793453
H           2.13091605211306    1.86520199078266   -0.27217650613748
H           2.10388388321381    0.58552096901343    0.60624971731026
N           0.65894623947287   -2.40201924157504    0.81388395774231
H           0.48648719607449   -1.96527416631081   -0.09050861761620
H          -0.23207784959540   -2.76540069077541    1.13142462670564
H           1.28712622313006   -3.18260716068710    0.67216721337767
