    26
        -50.44664174  Gyration_radius:  2.47695172681 Dipole_moment: 5.175
 S          -0.87814811293474   -0.95223418106605   -0.99129052275162
O          -0.41805932867932    0.40295969485254   -1.27210126100518
O          -0.04293571201057   -1.97409155069149   -1.51449824982198
O          -1.04316314667354   -1.06715705127402    0.53261139637313
O          -2.30922419242635   -1.10041123402917   -1.50483468731319
H          -2.92023840110555   -0.61460543876897   -0.85090278372950
H          -0.18955010256156   -1.50345479026411    0.99261377548100
O           0.81375157003735    2.01856754837274    0.54561902706739
H           1.24284336562482    2.68292021606802    0.00217605590408
H           0.42759986123835    1.37791708506644   -0.07880344756219
O          -2.04367022177870    2.25817755376238   -0.15608875257601
H          -1.52545814191992    1.71207761849126   -0.77359622875816
H          -1.41453325429092    2.53732815610789    0.51837556277083
O           2.16452365654581   -0.35839292286628   -1.90897949818509
H           1.30684768399860    0.08640917134315   -1.86849529890474
H           1.93356232131035   -1.28118377669791   -2.05892155978729
O          -3.57264313001662    0.14796542283599    0.31406116931968
H          -3.11955593385166   -0.24424026644211    1.06677436010801
H          -3.18919667703539    1.05005836132681    0.19643999058755
O           0.95798869508823   -1.96319952325466    1.68057381087057
H           0.82878876769767   -1.80790722433886    2.61911521496545
H           1.70950268801677   -1.31153321655566    1.37069772854229
N           2.68252975010353   -0.22696343291012    0.90206322545814
H           2.70857687341408   -0.31591960515554   -0.11728005033503
H           3.63305258381465   -0.22663580781539    1.24711299373802
H           2.25680852839812    0.67354921390063    1.10755800955184
