    26
        -50.44625363  Gyration_radius:  2.4883359716 Dipole_moment: 5.298
 S          -0.22780068464261    2.05341220495157   -1.32378847599875
O          -1.09603352759564    0.97241626004665   -1.73060509542717
O          -0.63597992258771    3.36605643448041   -1.65762289391312
O          -0.02740921781115    1.90545456608512    0.22137181170914
O           1.19764545818457    1.80891148814030   -1.85273057467056
H           1.57980372167022    0.99387758333727   -1.40252065101739
H          -0.74467752812650    1.26618451580811    0.52180486392556
O           1.25215852200068   -0.78007825773882    1.68895315160597
H           0.84317213866134   -0.07733299443381    2.22939127176574
H           0.54209189485769   -1.41210576796467    1.49847932693488
O          -1.95272667037252    0.29038317288972    0.72254876935232
H          -2.14643052388232    0.39265840930096   -0.22162112365385
H          -1.62666512898620   -0.63390689076672    0.81914923418863
O          -0.20935900576696    1.16553854726671    2.96066894765178
H          -1.10673842791354    0.95006823774944    2.68643712864180
H           0.04489047093903    1.94975720768768    2.46580471062254
O           2.23867492459021   -0.20781698226414   -0.65041413645314
H           3.15855253623060    0.01495854178926   -0.49478467147684
H           1.84755518694069   -0.38975614159380    0.25506707089877
O          -0.91563621788978   -2.17972413378413    0.69489434333486
H          -1.39481885847762   -3.00577275525562    0.76290772930889
H          -0.60091875596228   -2.09106429576906   -0.26293235906885
N          -0.10271959665688   -1.70950377623220   -1.75239734793062
H          -0.52536773085783   -0.79536370898620   -1.91847386879220
H          -0.29001515849327   -2.28969938750828   -2.55999888750279
H           0.89875210192936   -1.55755205718945   -1.69958827407648
