    26
        -50.45284140  Gyration_radius:  2.44718997339 Dipole_moment: 3.825
 S           0.38816684960921    0.76789970142022   -1.55375921564268
O           1.23922711833852   -0.11421355375640   -0.78173723864203
O          -0.33830371391122    0.14492116383138   -2.60183544178276
O          -0.55019391876292    1.50890536058273   -0.57163794128650
O           1.22769176816078    1.93304232542765   -2.08915736268266
H           1.53353210849867    2.43085183630690   -1.27204841239399
H          -1.24870560731559    0.89266440960779   -0.12996512157588
O          -2.19466786843052    0.05842214809475    0.66161622570473
H          -1.55452111160916   -0.38433352000376    1.31820651607198
H          -2.77365936684050    0.61511461742444    1.18656086304844
O           1.75861512594579    0.76993505341114    1.59995876126651
H           1.58928121427640    0.36444929788132    0.71356786338249
H           2.59920586411504    0.41765358876867    1.90013221864536
O          -0.42825784399348   -0.92695464327143    2.22956263881589
H          -0.07983001851803   -1.66273357634293    1.65861373197218
H           0.27999357163122   -0.26677885112368    2.25193315310450
O           1.72228401890244    3.06361307934376    0.17303019698720
H           1.79716416569700    2.32362039998534    0.81422323219913
H           0.87154274077598    3.47599310840419    0.34309918491540
O           0.50882506206300   -2.54213840841642    0.37335054056846
H          -0.28855418276418   -2.66311636805354   -0.19142917676444
H           1.01350694021230   -1.86565771625273   -0.09725484597978
N          -1.58361155067945   -2.21545946699554   -1.31969912903305
H          -1.13886151435898   -1.53316728089354   -1.92904636746056
H          -2.27819830197958   -1.71221087391724   -0.77947694428396
H          -2.07167153907557   -2.88032186145992   -1.90680791914432
