    26
        -50.44370534  Gyration_radius:  2.64294810436 Dipole_moment: 3.306
 S           1.87678787331061    0.50955545867174   -0.46896513013666
O           0.89624667418431   -0.41139935946711   -0.99977780819015
O           3.09976285559931    0.60541382404294   -1.17554498532835
O           1.19843586955120    1.88619511496986   -0.27089985710724
O           2.16047453892318    0.12321604234810    1.00289309202592
H           1.28763238249395    0.18274149758655    1.48506898470826
H           0.79537538319390    2.21193044426469   -1.14118980617813
O           0.38456327627446   -2.44804657001367    2.47960821149399
H           0.09696550217968   -2.71761587104625    1.55759186286302
H           1.34171341893647   -2.51464134437743    2.48099554847237
O          -2.38376427730203    2.09813523215972   -1.62434642124750
H          -2.90904926920803    1.67206184117632   -2.30383505442987
H          -2.15013884723312    1.38476184080106   -0.98027975986476
O          -1.56821239053562    0.09112634840605   -0.10002891512137
H          -1.33839815851775    0.24290466894840    0.82487623035715
H          -0.71641762372042   -0.11936918510347   -0.53125251502471
O           0.04800948526974    2.76259213324084   -2.36523524794553
H           0.10904542213307    3.72025397545658   -2.35534080360776
H          -0.89626055594414    2.54015296975787   -2.14082361520749
O          -0.08271754483274    0.09342479379564    2.30671439977185
H          -0.00676702651725    0.50344902462956    3.17024718828678
H          -0.01288498100541   -0.89891529172567    2.44838958362641
N          -0.24690711706628   -2.90269563176153   -0.05435363877564
H           0.27774734428510   -2.15255559595005   -0.50232135635885
H          -1.22824551163301   -2.69818147456568   -0.20203627626858
H          -0.03299671287613   -3.76449487623797   -0.54015393082245
