    26
        -50.45038840  Gyration_radius:  2.64246486036 Dipole_moment: 6.834
 S          -0.05848266656887   -1.05052237828326   -1.24825152000644
O           0.60305931454421   -1.85874201938844   -0.24173587972904
O          -1.38054167247139   -0.63881391174982   -0.90692094172898
O           0.83569828529497    0.16343043813854   -1.55074032310814
O          -0.05887521891230   -1.79859497437814   -2.58433076723036
H           0.91727357637687   -2.08616859217280   -2.69353693034580
H           1.00975147940125    0.73953286271401   -0.68582451177398
O           0.36383163960544   -0.67823265058441    2.09429979103884
H           0.37450555292094   -1.20234420382699    1.26161265129726
H           0.73500563592865   -1.24146206805492    2.77612587449054
O          -0.93183593806851    3.01021592908423    0.68629237874471
H          -0.96127642398470    3.72159478660321    0.04607722295237
H          -1.70976067271169    2.41790639910552    0.47641390386844
O          -2.88381246809486    1.32710172923493    0.23457668659849
H          -2.48709000182658    0.61611690929899   -0.29267269741088
H          -2.88622977853116    0.99130281473183    1.14954301236441
O          -1.94003387907130    0.78457405926184    2.74521962838693
H          -1.57149271276533    1.67212898272033    2.75724927479675
H          -1.20352826469133    0.19027385422345    2.53388274240365
O           1.17284038027174    1.44087521432709    0.56785357448866
H           0.98726411399623    0.77633525527528    1.25509107029703
H           0.42362730906895    2.09291371053019    0.61796283339228
N           2.43766230226240   -2.33517311440405   -2.37202785090194
H           2.98561654986188   -1.50812013871507   -2.56812281396878
H           2.94262894015121   -3.15244112267244   -2.68797478275255
H           2.28419460789054   -2.39368779095530   -1.37006162608558
