    26
        -50.45816383  Gyration_radius:  2.53809753415 Dipole_moment: 5.972
 S          -0.04449422737845    0.20067395564964    1.47759651352516
O          -0.67452904215079   -1.13074390881614    1.51949249156155
O           0.49311577872973    0.63378746634099    2.72536712268939
O           0.95757030428481    0.19612808543938    0.38137687278311
O          -1.16357349103086    1.20470318199113    1.05535892826010
H          -1.18868620198408    1.21480413661875    0.06316060724023
H           1.49331708386979   -1.40911607094154    0.12953862253372
O           1.44998936908649    2.72861954320235    1.14818483864380
H           1.13728350348102    2.54854311253886    2.04207189459381
H           1.54479757716152    1.84326174043412    0.76463179971133
O          -0.12890859251758   -3.21955027031073   -1.77837734097657
H          -0.81774257017679   -2.52414561204156   -1.59533813246521
H          -0.60192760236439   -4.05152052298873   -1.83065096581728
O          -0.68819919974717    1.15606760779385   -1.49940185621385
H           0.14843208576130    0.78997608687653   -1.16473272356241
H          -0.54648931491780    2.13018693099242   -1.52089496843183
O          -0.20268025553259    3.67601740980731   -0.79228947223564
H          -0.94518072524114    4.05624868217766   -0.31984645262118
H           0.46836732101866    3.46505100230610   -0.10899667488636
O          -1.79667667748024   -1.38154786087705   -0.93177336306226
H          -1.65191658862641   -0.52130095334656   -1.34730866221512
H          -1.54829596360565   -1.28346454827328    0.00860037351986
N           1.19673314164251   -2.38962757788657    0.33900922682281
H           1.92702197144091   -2.93436976640777    0.78361560150399
H           0.80349891210014   -2.84303676040919   -0.53659745166250
H           0.37917341419939   -2.15564510984763    0.98820316074417
