    26
        -50.44926334  Gyration_radius:  2.44005652055 Dipole_moment: 5.004
 S          -0.88159885587247    1.98539216351832   -0.05201633615443
O          -1.41963072587087    1.58796482826408    1.22139752624049
O           0.10134926036794    3.01795841046411   -0.03595601029452
O          -0.27625083104213    0.72926911083315   -0.73719922366664
O          -2.04519211940436    2.33888462955370   -1.00091614252151
H          -2.61320533030433    1.51638415825105   -0.94553106134264
H           0.71590136853271    0.89493798929239   -0.89707236582883
O           2.33542142736227   -0.23749107837550    1.31518073073805
H           2.81004257056145   -0.03224794498858    2.12176202358274
H           1.39480544880774   -0.41500194502128    1.59165558780866
O          -0.16863973929481   -0.66713855954681    1.98508617743836
H          -0.56583241025781   -1.23082235358098    1.29926544908158
H          -0.61912051782283    0.18979095882519    1.88877559503138
O          -3.08907750388183    0.07515413191556   -0.34660699772296
H          -2.43970333446763   -0.64202367293413   -0.48085158754588
H          -2.95735462744318    0.35877453608971    0.56651765877873
O           2.16581200204074    1.36329493944697   -0.81691255129165
H           2.40266404521621    0.84423918095212   -0.01469915926100
H           1.91332642537682    2.24957960676175   -0.52269148778511
O          -1.22291935658364   -1.97225711493463   -0.23558016935754
H          -1.47524983204468   -2.89289820455024   -0.32274376128640
H          -0.32911116029641   -1.87528088501587   -0.66271883393534
N           1.30216065292226   -1.85371703686166   -1.16712296847654
H           1.77774725892697   -2.68116077317617   -1.50632145295367
H           1.81576090394015   -1.51098244435668   -0.36168673884055
H           1.36789501064463   -1.14060265074098   -1.88301389044376
