    26
        -50.44230483  Gyration_radius:  2.53843128121 Dipole_moment: 6.060
 S          -1.23815455187590    1.54926631928356    1.61151464876078
O          -1.22956644643946    2.10281319906308    0.28929116332450
O          -2.22136179771210    1.99362058520035    2.52808712291243
O          -1.30987934665200   -0.01746819793525    1.46571906521088
O           0.15929482096549    1.70439267721310    2.26180472038248
H           0.85472814612988    1.42923959316912    1.59876927336205
H          -1.65933600890044   -0.28941582732431    0.55396743443057
O          -0.42483108092244   -2.60892924927723    1.44257913307457
H          -0.25132092341446   -3.08381483165694    2.25658828144885
H          -0.76214669320308   -1.73243860828086    1.69053162089014
O           2.04023825047183    0.88865497342652    0.67806237831960
H           2.83100443869375    0.83628876839653    1.21811486570972
H           1.85844382728372   -0.04285106774396    0.36475673647554
O           1.56393516397412   -1.54665351413862   -0.15338797902574
H           1.13599101965457   -1.41063464308767   -1.01467168315745
H           0.91282714559360   -2.01721547384411    0.39583512448503
O           0.09150067987081   -0.78587184257181   -2.35295735340627
H          -0.00241769763760   -0.90560282414735   -3.29824982955485
H           0.29777826342429    0.20220505848739   -2.19963202125017
O          -1.99555655491302   -1.12104699464722   -0.72350131726992
H          -1.87572668511170   -2.02208147251601   -0.40715191602268
H          -1.27150110838268   -0.96424264568676   -1.37404041568629
N           0.59128093663961    1.71026395215052   -1.82983427014942
H           0.60890157209008    2.43850643080699   -2.53227784739223
H           1.45373682067578    1.76130378659490   -1.29915622573611
H          -0.15786220026191    1.93171186895139   -1.17076070009813
