    26
        -50.45012108  Gyration_radius:  2.46947235688 Dipole_moment: 3.800
 S           2.13407889433487    0.27326516118449   -0.50312198948027
O           1.11649242028203   -0.33314384294608   -1.33773302096868
O           2.71069605871796    1.46545315146894   -1.01113742718955
O           1.48779180141832    0.55124641586004    0.88748533785447
O           3.19649114067038   -0.76613713064058   -0.15534557959771
H           2.72998750373183   -1.52141870311805    0.34325500111158
H           0.90143898097585    1.36397441567450    0.74917437106264
O          -1.27769952504659    0.41816116717005    1.87390341874672
H          -1.11337911317379    1.25481661498502    1.42086171950963
H          -0.60109119328495    0.34773403841718    2.55118609925027
O          -0.93177875218481    1.40156265456985   -1.78731262995645
H          -1.70593393626043    0.85050770519492   -1.50283472246335
H          -0.19644228649704    0.77803588445077   -1.90490161711049
O           1.88757198127734   -2.62779092827090    0.99768150955769
H           2.01811016201035   -3.45188835100664    0.52312487067705
H           0.94021946420843   -2.36020246408152    0.83860722163718
O          -0.03933500638789    2.51183265649063    0.32781099352236
H           0.53953340637974    3.23051181364005    0.06452655491188
H          -0.44968430940016    2.16118681534127   -0.53796375158786
O          -0.46592115839631   -1.72509623213167    0.28464420302055
H          -0.00012961526957   -1.24168475080304   -0.42539420807490
H          -0.80707129708543   -1.03845003432662    0.88640648168065
N          -2.86427481353085   -0.20578690359339   -0.78041688391743
H          -3.78124376097255   -0.26448857750498   -1.20359094564088
H          -2.97929334375198    0.05887672353306    0.19098406496707
H          -2.44913366275567   -1.13107728957244   -0.78989906158813
