    26
        -50.44643131  Gyration_radius:  2.60633691061 Dipole_moment: 2.858
 S          -0.95865121499166    0.48649212016526    1.60958125627190
O          -1.70401227427704    1.39940999198070    0.77662261326532
O          -1.68410656690350   -0.63461918480126    2.10823371169603
O           0.28736066318041    0.02659017144221    0.82358541388253
O          -0.31623640788599    1.25115135553165    2.77953741370683
H           0.42881394768000    1.79880966988215    2.38174997460616
H           0.00189209005889   -0.60549988360018    0.03262199260471
O           2.05984720771333   -1.37598907469969   -2.13474322551727
H           2.27880522947130   -1.68767906465309   -3.01422225108459
H           1.72359564327575   -0.46328073236768   -2.24795791329152
O           1.56820824828560    2.43612409202027    1.48832885377159
H           2.05314114956158    1.65267756513385    1.21205520486101
H           1.08433482811896    2.74029596973986    0.69165777487878
O           0.52733502168601    0.84757020874649   -2.41852315856764
H          -0.23732229621741    0.29764066229247   -2.21873222831214
H           0.45547818625142    1.61546577044416   -1.82975252047831
O          -0.07819538471311    2.86338218388574   -0.59286527955260
H          -0.50498712557839    3.68808088498795   -0.83206669202363
H          -0.76277071125902    2.32158192996127   -0.11865817065787
O          -0.37809729494325   -1.53094127984690   -1.00222651790027
H           0.50225507382344   -1.76302779888074   -1.36653552089632
H          -0.70024960652951   -2.28651720423090   -0.43390334584290
N          -1.29487082162622   -3.19417136262528    0.83689581485920
H          -0.67275077498708   -3.78734409938452    1.37214497898610
H          -2.15208576474913   -3.70919836699827    0.67895483793465
H          -1.52673106444622   -2.38700452411110    1.41821697280621
