    26
        -50.44837635  Gyration_radius:  2.46030326274 Dipole_moment: 4.187
 S          -0.59078260871406    1.00070270719208   -1.66525071520333
O          -1.65758970341838    1.23280664813288   -0.71964398201938
O          -0.56520500648126    1.81881753995348   -2.82079605162339
O           0.76495001130539    1.09959458056225   -0.89968604050151
O          -0.58837725526640   -0.49518916599564   -2.03926286729501
H          -0.97975028742437   -0.95016891283844   -1.22173393400451
H           0.80825697340009    1.99136456029830   -0.40257437791856
O          -0.03193032325140   -0.66930968793122    2.09849722986518
H           0.09761747665640   -1.16187028936589    2.90991258518830
H           0.83074972558372   -0.73051848396211    1.58847635169545
O          -1.07830008570220    1.90103818672940    1.82840324697329
H          -0.67600507927968    1.06180047354782    2.10577824271580
H          -1.50628262317009    1.70567299212534    0.97597635151200
O          -1.67504865538944   -1.36310664943890    0.09887904902539
H          -1.08222165368467   -1.19242974003418    0.86786590197023
H          -2.27992879112740   -0.61122967359989    0.07856414737783
O           0.65766533461934    3.25088578574893    0.42793708635555
H           0.05407090931817    2.87280072155775    1.12691676954569
H           0.14773022806276    3.90821357305445   -0.05047463112482
O           2.05260118284427   -0.91110751581690    0.58249073531312
H           1.93040472173393   -0.14045600400547    0.01353669783990
H           1.80070148985346   -1.68723717588239    0.02675571048020
N           1.03799458966489   -2.84108471826232   -1.04448142824422
H           1.56101419942516   -3.64504589529182   -1.36791464537999
H           0.80109448011809   -2.27274506575444   -1.85028688705533
H           0.16657077028830   -3.17219881070577   -0.64788454540607
