    26
        -50.45192272  Gyration_radius:  2.4910570756 Dipole_moment: 5.219
 S          -0.56355479499097    1.65240971144056   -1.59853850874069
O          -0.78732908458306    2.24782377403938   -0.29366289931696
O          -0.37550354477745    2.55193806319541   -2.67465398459079
O           0.65759806530402    0.69580818607994   -1.44755002082966
O          -1.69895766045819    0.67795535302342   -1.92910959124188
H          -1.84852924179859    0.02099468132610   -1.16179093710291
H           1.20813414023542    1.05948031738621   -0.65441735363952
O           0.73095838805079   -0.03412847581154    2.29007766066427
H          -0.16195803793808    0.33833903320410    2.35805861745458
H           0.63319245736698   -0.86946226746671    1.80317434533970
O          -1.75852825510337    1.12003258240646    1.84416904579944
H          -2.39505135759175    1.69717272065555    2.26784075851893
H          -1.40990851487273    1.61440909657137    1.06173196024181
O          -2.02100344487428   -0.89305293973909    0.04448676557562
H          -1.22095662166685   -1.42901608326071    0.22011470350541
H          -2.09844338383193   -0.28137844179746    0.79929886578929
O           1.77063344947710    1.66584366637793    0.57988808470965
H           1.15115571549569    2.40105714189676    0.65155790291368
H           1.51033200116924    1.02261097605898    1.29684827287834
O           0.24866040199539   -2.23748351417330    0.68244890925222
H           0.21986432311383   -3.15724995654482    0.94893668684050
H           0.83165532149537   -2.18453660743921   -0.12994251082238
N           1.72039059168081   -2.01419328477809   -1.51410540038307
H           1.41685909519740   -1.07035927109832   -1.74235300136120
H           1.51513503460838   -2.60581683078297   -2.30950359351550
H           2.72515495729267   -1.98919762077270   -1.39300477793346
