    26
        -50.44089413  Gyration_radius:  2.75581233977 Dipole_moment: 5.122
 S           0.93497954971233   -2.67396254903532   -0.32550490528167
O           0.94148027954606   -1.65189804125019   -1.34604412887440
O           1.64704104472843   -3.86173279001117   -0.60455742838665
O           1.46474886494579   -2.01567075353554    1.00523032945527
O          -0.52697280404361   -3.00730993194532    0.03415375477862
H          -0.85570538784645   -2.43324921262577    0.80621384495934
H           1.65153862480735   -1.07200433872249    0.83018171123716
O          -1.03004782051355    0.78471093701665    0.66588287099658
H          -0.05729069473640    0.70908020010823    0.54801537006150
H          -1.40734195806371    0.40340422905778   -0.17260715435442
O           1.57092856415270    0.44879458261004    0.10322128079168
H           1.83123152179373    1.37682153920038   -0.11709694222234
H           1.46715148490299   -0.03032464520050   -0.73634262331327
O          -1.20680957920700   -1.49979586229788    1.97526989591305
H          -0.44575854336261   -1.52623392336555    2.56076997072682
H          -1.24926630882331   -0.58349354523811    1.59578016387763
O          -0.72632671307302    3.45664771684135    0.30039723437450
H          -0.96374524509667    2.53928405475791    0.55259984072885
H          -1.38517644899494    3.74516237114512   -0.33245928644219
O           1.84956860536988    3.03596421647917   -0.39668290128810
H           2.40501389450597    3.55893686197390    0.18315036352617
H           0.92298387704091    3.28480935970952   -0.18487306866648
N          -1.70556490133727   -0.54987016443564   -1.53795537044099
H          -0.79015439292036   -0.98245086334158   -1.66305635651488
H          -1.98485592744470   -0.15803537189800   -2.42877645939405
H          -2.35164955602982   -1.29758408596599   -1.31490999615428
