    26
        -50.44417680  Gyration_radius:  2.57013586057 Dipole_moment: 7.360
 S          -0.98494982643128    0.14700776352849   -2.09092566342600
O          -2.01551371037528    0.29519098045070   -1.08718925146999
O          -1.39932581309247   -0.15545964499731   -3.40892569083670
O          -0.09195766104407    1.41697491373767   -2.04668133735735
O          -0.00031351211767   -0.95373949410673   -1.61935642278699
H           0.37565948930208   -0.65712400938425   -0.73024794557173
H          -0.53778149383729    2.08323165396755   -1.43204849296379
O           1.06512794809059   -0.34720763862369    0.63264840404192
H           0.65823047129156   -1.10944669754526    1.12467765699413
H           1.96360235606733   -0.63555105289725    0.34017897121913
O          -1.42374359946378    2.80080939698640   -0.36580170051788
H          -2.12558523429397    2.14386579954087   -0.48359997922368
H          -1.00627429358012    2.58055235889850    0.48917998729775
O          -2.20110480857159   -0.34930430214646    1.54315182051734
H          -2.28073829649207   -0.20757743106933    0.58303115375088
H          -1.74021897035531    0.43088722533917    1.87826747234113
O          -0.22787286072841    1.70455300892662    1.82436673854629
H           0.32684726741947    1.02488645351451    1.39049679446033
H           0.31215363966122    2.11872013261975    2.49868385388596
O          -0.37763765875789   -2.26292150552064    1.67838173619498
H          -0.62957702328457   -2.90732880458695    1.01467882500654
H          -1.14765820884144   -1.64510861320012    1.75838103500769
N           3.21673726990558   -1.27948965616592   -0.67327317980685
H           2.66459743525921   -1.48727572922390   -1.49840714028849
H           3.67436150311927   -2.13356448780501   -0.37957753170153
H           3.93293558117352   -0.61558060024478   -0.94009011333693
