    26
        -50.43955510  Gyration_radius:  2.57004832049 Dipole_moment: 6.981
 S          -0.00835455353751    2.09804226408626    1.54303414513750
O          -0.28016677817821    2.41640482637660    0.16011552850415
O          -0.59135996570740    2.94287237568954    2.51835161079790
O          -0.45656280593290    0.60767267799270    1.76413235336078
O           1.50167133759054    1.97174085891700    1.75896621052385
H           1.84056456886653    1.45225707567450    0.96274390985638
H          -1.36016788932090    0.43556267520784    1.36564482190366
O           2.19297014502458    0.57640397615093   -0.26255791828140
H           2.57848888679216   -0.28701811470622   -0.05947980433719
H           1.40816397538633    0.36964015516890   -0.81440053083494
O           0.15204549118739   -0.59258296265263   -1.61148299820552
H          -0.54012932955144    0.04673324182884   -1.83341392561688
H          -0.18470833026239   -1.12524245289860   -0.86176976709697
O          -2.60712207762427   -0.08522000870519    0.50375923210617
H          -2.51669172569292    0.43048346919494   -0.32370395684589
H          -2.35155424970955   -0.98849925946042    0.29097519053218
O          -1.82392319333121    1.35142334428542   -1.62616381210617
H          -2.25127296734864    2.02782041514098   -2.15346622558913
H          -1.22481343241764    1.83006094289017   -0.99942937223928
O           2.42337393154400   -2.17914045363709   -0.88194113006404
H           3.12130216950323   -2.47460021213892   -1.46833875031936
H           1.73834270433824   -1.78465393255793   -1.43962270892995
N          -0.30054174868751   -2.14983873450435    0.63073318838546
H          -0.89660600824840   -2.87388837054227    1.01476760834445
H          -0.17259550738287   -1.44537813044197    1.35198797018249
H           0.60964738268752   -2.57105567635112    0.47055913085044
