    26
        -50.44490461  Gyration_radius:  2.6195332663 Dipole_moment: 5.985
 S           0.45201686213278    0.29267944733011   -1.67123255794478
O          -0.96754240709939    0.53071186726084   -1.49066048460797
O           1.02990166853762    0.82489016289055   -2.84828304884199
O           1.16525079223435    0.86835113028009   -0.39412935934329
O           0.74179026488432   -1.19089090523516   -1.52920882038456
H           0.20277252348270   -1.57458664331617   -0.70334968483375
H           1.06172805644961    1.87203731562368   -0.41106955625036
O          -1.85269582716169    3.04962717832546   -0.96057204994331
H          -1.67116786465072    2.25384476715510   -1.48799942716736
H          -2.27006278482468    2.71896044654088   -0.15560333641561
O          -2.10919530619938    0.81215230731407    0.88171033019664
H          -2.77778937588119    0.13561151467076    1.00254835617715
H          -1.70732146439611    0.63293963377244    0.00173820453233
O           0.18564338048071   -0.04690668109885    2.05405035215214
H          -0.66811934441449    0.39432827329714    1.87955388346051
H           0.80104803456139    0.33034709166377    1.41094873123385
O           0.68214940325979    3.37433623751333   -0.31689451234918
H           0.70331878854681    3.73714701898534    0.57162749846676
H          -0.26359925027089    3.40780844977818   -0.61673810212216
O          -0.38132944513562   -2.11242391129775    0.49133044167998
H           0.25066472014310   -2.85442495282837    0.65227933055372
H          -0.18950253979471   -1.43841815664806    1.19156887900870
N           1.66456510578766   -3.87157651304952    0.65173612289151
H           2.30547970617635   -3.71309027835607    1.41911634140687
H           2.11500703778354   -3.56638373873038   -0.20308493432821
H           1.49698926539496   -4.86707105177592    0.58061739290887
