    26
        -50.44924654  Gyration_radius:  2.5241724611 Dipole_moment: 6.186
 S          -0.36954216272815    1.40582976515429   -2.14764060784469
O          -0.54965683143185    2.22431608170004   -0.96989701639934
O           0.04759479440368    2.06337623497678   -3.32703797788706
O           0.62263229863200    0.26007312236957   -1.75249785716637
O          -1.65823606485071    0.61067730852977   -2.42886106158776
H          -1.90048437762278    0.04893198766719   -1.63177729517305
H           1.23495136262689    0.66524131100032   -1.04807047644768
O           1.84805670292114    1.53202911410647    0.06093252972314
H           1.23107744740810    2.25741308526690   -0.11115279444296
H           1.57525811198826    1.15860427102990    0.93068281745917
O          -1.56685861095873    1.13897337760068    1.26184320439326
H          -1.95256319282928    0.34225309189914    0.87159875085102
H          -1.28859124618085    1.68268446489849    0.49964070387007
O          -0.03698503335422   -2.28981589094790   -0.80294221823348
H           0.37089136686437   -1.65731847683700   -1.40758076411519
H           0.53201461723563   -2.26847316486768    0.01375677960488
O           0.75649382042934    0.64413380496087    2.35454131133483
H          -0.16832325597221    0.79225881009124    2.01245665285734
H           0.84655234595950    1.20724149195113    3.12476826496708
O          -2.19440893257827   -0.95620633075390   -0.44631593565238
H          -2.94386654260315   -1.50666906586172   -0.68089493068213
H          -1.37174215024732   -1.54568062921307   -0.52479191685492
N           1.56725705423639   -2.01296352982781    1.32757023806204
H           1.56974481601321   -2.75951375821025    2.01079586886149
H           1.27898291067055   -1.15962471162775    1.79884170026498
H           2.51975074200035   -1.87777178508458    1.01203203021159
