    26
        -50.45192246  Gyration_radius:  2.49130721441 Dipole_moment: 5.222
 S          -0.23667691954514    1.54535265306999   -1.78178228954796
O          -0.90080799550765    2.13249883049911   -0.63220625439295
O           0.16643800309429    2.44245879228503   -2.79914067604363
O           0.97869088814850    0.74057279139138   -1.22985174136365
O          -1.11147520147204    0.43967061262948   -2.38176408559973
H          -1.41154368722370   -0.21714761196627   -1.65990311916659
H           1.22511376379897    1.17862597839316   -0.32883490371336
O           0.00951967276422    0.08991642152622    2.39964771941449
H           0.15012608923670   -0.76019760045520    1.95012262475293
H          -0.89695313963734    0.35728236384975    2.18163184780507
O          -2.34003308324282    0.93650309552686    1.17958766778108
H          -1.82835823988703    1.45458520223429    0.51022064994687
H          -3.13203670438167    1.44209713230194    1.36607661057618
O          -1.83609374726814   -1.12409539486687   -0.51182224010270
H          -1.07268732380068   -1.55959677151937   -0.08101391398283
H          -2.20007889725456   -0.51287030496677    0.15437389297654
O           1.32729126886815    1.86607338712551    0.98435617598607
H           0.64194355276990    2.52707452675848    0.83383719278249
H           0.93377406938789    1.21028355916611    1.62523719798573
O           0.26757458343035   -2.18210762397772    0.83845392177597
H           0.25917685266282   -3.09459199376093    1.13010801397990
H           1.06212516942372   -2.07181731378536    0.23898354437897
N           2.30973591931738   -1.81535448067681   -0.81502170198797
H           3.21490500336516   -1.65458547709358   -0.39117852035756
H           1.98309242739414   -0.92500548952494   -1.18326888510881
H           2.43723767555642   -2.44562527409911   -1.59684871879100
