    26
        -50.45161255  Gyration_radius:  2.59036386171 Dipole_moment: 5.283
 S          -0.35430266470743   -1.24956552890139    1.71969420023262
O          -0.97664143639874   -1.24105960664505    0.40443426959085
O          -0.56781258203708   -2.40697382463116    2.50168957809006
O           1.16126828304605   -1.03585031251455    1.50991901466858
O          -0.83074608847471   -0.00065465192661    2.47885159568027
H          -0.72541140272656    0.81605121496590    1.88541040714463
H           1.32822718164752   -0.31917358808829    0.80215975669287
O          -0.45666873496890    1.94804041088309    0.87749779165451
H          -1.09750278643603    1.90128091851369    0.13671953228053
H           0.41546729378580    1.77694280968671    0.49109866122276
O          -0.23046325926260   -0.15126519132980   -1.94609937001540
H          -0.88044730331610    0.56328096591780   -1.99108135337240
H          -0.54465059553141   -0.72995954707417   -1.22785755031749
O          -2.22779225462129    1.68986262050043   -1.17424229843896
H          -2.81669233627318    2.43908531462924   -1.27404930987318
H          -2.76518209741742    0.95923753290076   -0.78295507511559
O           1.65284413991796    0.67340292170716   -0.31655529083149
H           2.54242680125338    0.30206237146630   -0.52582394756474
H           1.05242929182854    0.39109306802341   -1.05694289585881
O          -3.43352417532968   -0.38241739127606   -0.03934187665578
H          -3.89252117983308   -1.07811179759608   -0.51318822782106
H          -2.57325038970243   -0.76465300495182    0.23767396530357
N           3.87783345582851   -0.82314237502731   -0.57808692296497
H           3.62684593554520   -1.41881610477669    0.20302796109658
H           4.80804668552554   -0.46120874709574   -0.41062984402443
H           3.90822021870531   -1.39748845730235   -1.41132276078323
