    26
        -50.44589611  Gyration_radius:  2.51127399869 Dipole_moment: 8.176
 S           0.52581670419787   -0.58085563513163   -2.06196304800811
O          -0.56718372737764   -0.57315914309336   -1.10785934678695
O           0.12652874571642   -0.46408227590437   -3.42042865969348
O           1.46313177230011    0.61138355396569   -1.67630404138447
O           1.40069973830625   -1.80083114333918   -1.83233123942303
H           1.56370813480244   -1.91565451268602   -0.80628871369412
H           0.81223083297026    1.42350908780431   -1.67981779951212
O           1.58407882347953    0.70337967589252    1.08887661024646
H           0.72648949269960    1.14789744651437    1.18738233272612
H           1.82521864784126    0.81690448601110    0.15916973554803
O          -0.95399347779854    1.92019646210869    1.31073956274809
H          -1.40330315237626    1.05169948998228    1.27984248993702
H          -1.07192935719639    2.26425161093319    2.19779779603132
O          -1.95839396993582   -0.59454825671882    1.05943670483914
H          -2.84506631247726   -0.82662406737011    0.77679775658219
H          -1.40531360324389   -0.63420261177657    0.23922484768383
O           1.72484928057035   -1.95366708960297    0.64956241826332
H           1.73727148194108   -1.01652751612161    0.94274111948446
H           0.94658382577396   -2.36193860595910    1.08438103182819
O          -0.45868476680362   -2.65244744714027    2.09249993997030
H          -1.05770102555520   -1.94053134420119    1.80135941806429
H          -0.25561707808072   -2.48891565958673    3.01506964017712
N          -0.38667016732510    2.35313348742979   -1.59458537110007
H          -1.07665206617047    1.82295611664476   -2.11096447144903
H          -0.32455623471707    3.28819752565801   -1.97397061560516
H          -0.67154254152516    2.40047633578709   -0.62036811750273
