    26
        -50.44900188  Gyration_radius:  2.39872461986 Dipole_moment: 7.958
 S          -1.35442474767935   -0.34993620964496   -1.39844267189635
O          -0.43096665911228   -0.49559597119422   -0.27069534919972
O          -2.41247213793815   -1.31569798493132   -1.35664212198291
O          -2.00083256975257    1.10284622102955   -1.21519360356947
O          -0.58629127064181   -0.25413372331781   -2.63454119590136
H           0.61779162144775    0.41282468616886   -2.21662916756398
H          -2.57550189721426    0.96621487399076   -0.42726187838537
O          -2.93869507162063    0.07616142853277    0.98456179663540
H          -2.87757275544049   -0.70859374357284    0.41922108817520
H          -2.09461283375377    0.16564670462657    1.45243712630437
O           0.16843719472778    2.22796822402034   -0.00502405745767
H           0.05625680458539    1.70384137706503    0.81007029991036
H          -0.67649190903807    2.12497791710573   -0.47462938218392
O          -0.40260585309616    0.75148403136848    2.30810459982486
H           0.12930082255006   -0.05969714004252    2.21330325866722
H          -0.26477749183260    1.09003278670427    3.19436776786822
O           1.44223790390052    0.89008641448225   -1.76554874824615
H           1.01885961823565    1.47543320564010   -1.03067578815063
H           1.98556887111534    0.13367392007419   -1.26569716117520
O           0.85498636606531   -1.62933983758269    1.62739394650693
H           0.33741564009970   -1.29776917229055    0.85115918165793
H           0.44678326585925   -2.46006930180606    1.87701291665377
N           2.77203158324571   -0.93824190800055   -0.54791286954970
H           2.26550738626071   -1.16523887969371    0.30553225796830
H           3.72016092246675   -0.67985201021663   -0.30632254528919
H           2.79990717654126   -1.76702589850913   -1.12794772959587
