    26
        -50.44974296  Gyration_radius:  2.57982201773 Dipole_moment: 2.461
 S          -1.05347432802392   -0.00353860119798   -0.30328582171104
O          -1.83450561227121   -0.36934861111965    0.84703235621859
O          -1.49423738382301    1.12604269024724   -1.06057915690661
O           0.39500550758497    0.25538747391048    0.18658549604889
O          -0.91370296945039   -1.22211647315205   -1.22451964740203
H          -0.94923849562961   -2.05407513222732   -0.58241400961325
H           0.74423283718533    1.11346457823976   -0.29274712815679
O           0.18182528938965    3.60043019913988    1.26599446784778
H          -0.69201754793811    3.17286769972758    1.40217913847980
H           0.68665944507376    3.44158019156218    2.06499882849802
O          -2.14697275765073    2.25363047941577    1.45602586803688
H          -2.58708207029058    2.47803082236520    0.63148316745358
H          -2.08962746289027    1.28437510474580    1.45240671818445
O          -0.93939621012188   -2.95775311130343    0.56022203635428
H           0.01219697315380   -2.85112791314280    0.84655209551770
H          -1.46633083861434   -2.40214615589195    1.14932832923467
O           0.90796302460477    2.40187766181683   -0.97048444560409
H           0.75697497875526    3.00202590013231   -0.19681224854536
H           0.05870706397652    2.36355181504397   -1.43335163422563
O           1.52780973875252   -2.21280890182732    0.98894139175800
H           1.85707403855795   -2.34666205174064    0.07075356185117
H           1.34212778184672   -1.26785678745572    1.04190569350473
N           1.95733572908047   -2.23399430425377   -1.70682079901921
H           1.03176454567693   -1.87665528805733   -1.92073329716173
H           2.07049078155693   -3.11367472335631   -2.19459426976377
H           2.63641794203068   -1.58150655232403   -2.07806665915126
