    26
        -50.45050843  Gyration_radius:  2.57784053414 Dipole_moment: 5.987
 S          -0.55942921338786    0.07533429922020   -1.59114785574266
O          -0.32129806439324    1.15070434243152   -0.64833050700708
O          -0.09469862717970    0.27926990629657   -2.91997776897417
O           0.12943841753917   -1.20050665244866   -1.03789070965713
O          -2.04666900946647   -0.26628508383928   -1.57897035548214
H          -2.52870392033650    0.31382640370843   -0.86119115273939
H           0.14895058745320   -1.10906744903022   -0.02960201864084
O           2.79158595188496   -0.28574618216185    1.57341974475614
H           2.79197615490836    0.35657451198738    0.82039136967353
H           3.41369237919275   -0.97502097745261    1.33730900234740
O           2.46462842374089    1.20188392660289   -0.59233596418413
H           1.52583392380431    1.42359694930669   -0.65657110399524
H           2.66337007586856    0.66095320022394   -1.38129435618845
O           0.18971000728325   -0.51253159634181    1.40765136780993
H           1.15779242023720   -0.51981704926387    1.63161483418109
H           0.03293156938730    0.36959726239194    1.03396621510143
O          -2.94523207908204    1.19319817360157    0.24145516750767
H          -2.89050239961403    0.61704858898966    1.06325417060111
H          -2.16731604282881    1.76282618967593    0.24701079979226
O           2.47076891339644   -0.52659291876365   -2.69264189311958
H           2.29482497449345   -1.42745194127837   -2.41245240154984
H           1.62020058543941   -0.18779161439753   -3.02005797051753
N          -2.60452365111621   -0.41837932009397    2.32677565517868
H          -2.76484040727011   -0.04186226724974    3.25238873074556
H          -1.62194524685128   -0.66846486841712    2.25217250963768
H          -3.15054571318434   -1.26529584364414    2.23505450057965
