    26
        -50.45365672  Gyration_radius:  2.47293463387 Dipole_moment: 2.616
 S          -1.02251473316320    0.65245575617384   -1.61630134537825
O          -1.11886498237367    0.30468804865123   -0.21118992496006
O          -1.81735582579714    1.74495099899401   -2.03809398059883
O           0.44517387893530    0.92536958012853   -1.97437137693766
O          -1.37908312717325   -0.62264758169376   -2.41999628813353
H          -0.89545081442893   -1.37320705784089   -1.97671850550719
H           1.10549680009982    0.31396496535444   -1.46214109670430
O           0.87147588309941    0.89801059681986    1.40940237714565
H           0.04530550634089    0.68358278186796    0.92890113602811
H           0.98787797420443    1.83935524242643    1.19221854868545
O           1.90996910589448   -0.57721328673448   -0.58603589983269
H           1.72983185124256   -0.14243716260192    0.27681440740663
H           1.39598377102040   -1.39969990834634   -0.61435278264274
O          -1.36647586123141   -2.06038175267054    1.10895073969780
H          -1.58416056470743   -1.16320585409303    0.81104871915286
H          -0.70577943252535   -1.94506008029530    1.82328517940783
O           0.53460280614971   -1.35734682800415    2.91953773310576
H           0.78568709062735   -0.50507468101908    2.52408685450514
H           0.29078777500089   -1.17765596548681    3.82856080025858
O          -0.07842333607040   -2.44749880288323   -1.07978104248279
H          -0.58692858216551   -2.40165249880552   -0.20572668120764
H          -0.17884002500755   -3.34244870932418   -1.40939943743434
N           0.25375908202388    3.14515719990512   -0.07864232473700
H          -0.60169257117065    2.74864525689830   -0.45581187781340
H           0.91957895683378    3.14518908624419   -0.84349836196605
H           0.06003938418359    4.11416065644754    0.14925444076756
