    26
        -50.44642203  Gyration_radius:  2.56789080906 Dipole_moment: 3.762
 S           0.31367798322704    0.96863401473520   -1.75490004331203
O           1.06998677059900    0.71020418583713   -0.55100149407319
O           1.00533869760695    0.83237601671227   -2.98450148039939
O          -0.91100961123130    0.00774325354492   -1.76395601633858
O          -0.31239035956981    2.36893312802541   -1.67152454367147
H          -0.74683904590198    2.51117703888135   -0.76105253537707
H          -1.10706595133436   -0.35700088623647   -0.85662333505876
O          -0.70011145847159   -0.22482316553104    2.94440533374884
H          -1.46495897852799    0.16076709483048    3.37474286395392
H          -1.00086764817054   -0.54457363615240    2.07561795171329
O           0.75761844699208    1.81642223554397    1.88763594627008
H           0.40143328993200    1.07211493494438    2.41129410490549
H           1.10202328155841    1.41310634952130    1.07135819396181
O          -1.46828534162277   -1.19517295381304    0.47093146436543
H          -2.30089700181951   -1.64025339374646    0.29937055272224
H          -0.75431078476384   -1.90659335711761    0.40956019136226
O          -1.29763436793078    2.76143180860899    0.64547857569773
H          -1.33763401052858    3.71262826111014    0.76382850352875
H          -0.52406291334455    2.44072115286691    1.20880480414077
O           0.40866056423985   -2.95237299209079    0.26752809320883
H           0.87628500755332   -2.64027503655351   -0.55953580237128
H           1.02665363370530   -2.81522437741591    0.98873665896397
N           1.63549461711088   -1.82209681328913   -1.79979438829016
H           2.52884529590857   -2.11840519758791   -2.17494285133563
H           1.77387781935268   -0.91992729077797   -1.35261222299797
H           1.02617207538787   -1.63954038482418   -2.58884851533382
