    26
        -50.44928931  Gyration_radius:  2.53718703833 Dipole_moment: 6.252
 S          -0.51256539413647    1.75796562823324   -1.08176843614308
O          -1.72311699207060    1.13408483271766   -0.61648596234320
O          -0.61281905612396    2.96846799087770   -1.80882125803391
O           0.40929079284204    1.99235821231827    0.15233796500828
O           0.28063610875179    0.72726468932843   -1.92744408691135
H           0.10950141900564   -0.20702742105555   -1.56926194176469
H           0.22211991478020    1.28662390630547    0.85547389635499
O          -1.87635511393580   -1.66619981457278    1.08148118632962
H          -2.21289207032256   -2.51336151808425    1.37707947271767
H          -2.65637803805243   -1.14752866291567    0.76124709372498
O           0.10044851141885    0.10684171046499    1.85123667969775
H           0.87582998365350   -0.43916512640158    1.62884851806658
H          -0.67963386295632   -0.44219801063891    1.66234535569465
O          -3.87012629093146   -0.17372459121617    0.18683782247129
H          -4.28017446882628    0.43458330103600    0.80497597129785
H          -3.20105342556987    0.35258191952385   -0.29167741237333
O          -0.00115093096503   -1.59459671544498   -0.91141437120192
H           0.80248912205399   -1.65744307324940   -0.36499863707361
H          -0.75421099042772   -1.62453562556267   -0.29020344968054
O           2.18290235259988   -1.26778049096219    0.71337260213264
H           2.55335624019680   -0.49307384728329    0.19479481393552
H           2.92896690514069   -1.79225410552880    1.00565219681186
N           2.97924727850131    0.83210661113913   -0.70047474874627
H           2.41737679258758    1.56802824563420   -0.28145604063284
H           2.59321376448840    0.67989451503855   -1.62635763198656
H           3.92509741816848    1.17808742034252   -0.80531960736242
