    26
        -50.45982090  Gyration_radius:  2.56278826272 Dipole_moment: 6.417
 S          -0.76457932554514    0.30399397010459    0.15410562283768
O          -1.38001609305639   -0.26609758727473   -1.02687916809891
O          -1.52242965328914    0.02600952768775    1.38087261309869
O           0.61894299032018   -0.13600490898995    0.33926127363298
O          -0.73178769099826    1.85059944170291   -0.00292557027810
H          -0.87534298649880    2.02320530032769   -0.99538258949133
H           1.01808922212492   -1.87071445935046    0.55541266651902
O          -1.00749516432872    1.92439477627623   -2.52053971195455
H          -1.30634216404758    1.00597132702490   -2.43142528824011
H          -0.08462873681355    1.87575735728235   -2.86044891044612
O          -1.71367250543149   -2.61761206528034    0.14304593870678
H          -1.61631221866870   -1.83535145389125   -0.43748650079662
H          -2.40865213547477   -2.37695141343985    0.75915160620853
O           2.10173061626522    1.91980637589150   -0.43731059120753
H           1.50101853554343    2.61064713512209   -0.14387777999707
H           1.67735965170756    1.08593669522561   -0.14628779752074
O           0.80148829201598   -2.69314554031562    1.03778770997091
H           0.41654033572046   -1.94311534367071    2.28131443312475
H          -0.07080006197409   -2.94992296557021    0.66693194253259
O           1.61042058000248    1.78315320390867   -3.07381348735063
H           1.91466953775903    1.77859136987105   -2.13784928874667
H           2.08157096653525    2.49501805402634   -3.50927161619638
N           0.03659269897392   -1.19224117212499    2.98385376169193
H          -0.42324940832626   -1.60232536952017    3.78990204096673
H          -0.66747097483167   -0.62016250182755    2.36446718624901
H           0.79435567231730   -0.57943974319817    3.26739149479874
