    26
        -50.45683229  Gyration_radius:  2.43361011127 Dipole_moment: 3.394
 S           1.12049340390053   -0.93107991676234   -1.12632337658447
O           1.25956503984622   -0.41827204895976    0.21846182571907
O           2.21546730191834   -0.71453920053607   -1.99951567628314
O           0.82586734522269   -2.45023074391422   -1.01006873986793
O          -0.14548527104998   -0.34602764807557   -1.77037424662861
H          -0.97715163327839   -0.38741542044878   -1.16538145697026
H           0.16464300192798   -2.58021374201077   -0.27831098417716
O           0.73702204214706    2.20853734741076    0.53498808364065
H           0.82402378088903    2.44165170528507   -0.41487599523749
H           1.15034305977022    1.33124873640131    0.57462661002816
O          -1.47141469363978    1.33490538529214    1.60721521672337
H          -0.65616478563608    1.74317883242151    1.19357987137554
H          -2.02754015370263    2.06451954572100    1.88237516294441
O          -0.90951856065234   -2.67624010309087    0.94350636161226
H          -0.90397157272463   -3.55063083153269    1.33675084228705
H          -0.58126109003991   -2.03700807328520    1.65076837169575
O          -2.13296593174952   -0.49776682266122   -0.22389564803792
H          -1.97925444228391    0.19466962154253    0.45877016036971
H          -1.99757658156152   -1.35316947311026    0.20909872419244
O          -0.02118338723828   -0.84910581061359    2.53815675119158
H          -0.61359417265455   -0.08141206724825    2.48257305594069
H           0.69054440600972   -0.64938007070143    1.90630198708640
N           1.29531199535883    2.14598863647320   -2.12971639401728
H           1.79619311981010    1.26191372575631   -2.10400005650770
H           1.87382690398315    2.81154097745920   -2.62919300825034
H           0.46378086548653    1.98433744921358   -2.68551746229268
