    26
        -50.44526870  Gyration_radius:  2.53204691235 Dipole_moment: 4.737
 S           2.04576795380213    1.26158748644695   -0.04636396616590
O           0.94449704163282    1.27906508969421   -0.98016194883214
O           3.02326504252223    2.27384078061120   -0.18513511927072
O           1.42414980237058    1.25727626906973    1.39041835436621
O           2.73397760484826   -0.11955400466455   -0.09093014820762
H           2.06306924602781   -0.85458611278652   -0.00378735106511
H           0.61245268722435    1.86688804948702    1.30565768260606
O          -0.22411068459644   -2.33115754157677   -2.05795471060729
H           0.33547758711507   -2.12068213056278   -2.80771683245963
H          -0.83536366435201   -1.53651043855979   -1.94306835037909
O          -2.31486761241259    0.50750597139408    1.18551755130802
H          -1.61059907647110   -0.06908211362229    1.57675999241269
H          -2.99668349619923    0.58702349497054    1.85413240546232
O          -0.26749519028510   -0.84390724748442    2.18747380628473
H           0.08047932101101   -1.44871522969604    1.51231743810099
H           0.39898631122092   -0.14841323368516    2.26615123142562
O          -0.64591419355960    2.57517535702621    0.78378465208084
H          -0.36411321126426    2.47381747726586   -0.13612756189990
H          -1.36105853510427    1.91081080817154    0.92127488690050
O           1.08570635140837   -2.11103744021065    0.15047441941946
H           0.55772949648489   -2.22621094548211   -0.70240174931043
H           1.59109360304125   -2.91773827528348    0.26873883771926
N          -1.51114875228482   -0.07819298084584   -1.67768746841607
H          -2.03428333075747   -0.01729122021339   -0.81029065077464
H          -2.06613472263722    0.35435349355094   -2.40477844707273
H          -0.66487958878966    0.47573463698563   -1.55629696363854
