    26
        -50.46800647  Gyration_radius:  2.46379560492 Dipole_moment: 6.693
 S           1.17591706366915    0.11372062948353    0.26674233999479
O           0.73065604021192   -1.25433386868601    0.49395285780117
O           1.26270177528530    0.38687896033642   -1.17386033689145
O           0.29401688628410    1.07899253498502    0.91467804620245
O           2.59973726554859    0.28372491123868    0.82958361054577
H           2.44430035727911    0.46325751016875    1.80342622369670
H          -1.33865229690490    1.22980558213545    0.48468070074348
O          -0.19160476912199   -1.10557592257400   -2.85502836344059
H           0.20405461105028   -1.92065714301582   -3.16687538663307
H           0.46225053743231   -0.70264048653008   -2.24558891258506
O          -2.14338236095935    1.13855087801150   -0.07376897159112
H          -2.23835815722666    0.15789738576158   -0.17723716293168
H          -1.50874634286010    1.49322397637412   -1.33912197399640
O          -1.72152547603021   -1.41457837797103   -0.54251619574875
H          -0.87239355291169   -1.47469185392519   -0.06069050202946
H          -1.46457935119070   -1.46456153024737   -1.47578168100231
O           0.51929321631428   -1.65688379251344    3.10716900037418
H          -0.40239106978314   -1.86824355155948    3.26538761592402
H           0.63092297084355   -1.63480372558814    2.13388401286812
O           1.69811420746768    0.76085386166454    3.17774597024094
H           1.35834285794798   -0.12276605305464    3.42568661493511
H           0.98123563802042    1.17833034443582    2.67580941050151
N          -0.80590420258281    1.59534839206954   -2.19588808676333
H          -1.04241076034662    0.92183060576541   -2.92478787034604
H           0.12429705305786    1.27721137355356   -1.78729979941804
H          -0.75589212050849    2.54010937967370   -2.56030119046201
