    26
        -50.44601003  Gyration_radius:  2.52978900393 Dipole_moment: 4.456
 S          -2.02446724955383   -1.36956667562229    0.63234792634061
O          -1.04368372164612   -1.36624875728629   -0.43598189998141
O          -3.08542020592725   -2.29356483574565    0.50924286257843
O          -1.26600066309648   -1.61859137526292    1.96471728754913
O          -2.54699094070496    0.07696909407294    0.77936761706784
H          -1.88542734230324    0.69027739544275    0.30250938692138
H          -0.94819292083922   -0.74587948663388    2.34423954045455
O           1.35249208898608   -1.75376634261691    0.67138215489268
H           1.16906986019097   -2.21612358861909    1.49201903066213
H           0.50505696193055   -1.72938943583771    0.18600456045822
O           1.46502557140524    0.90480413081706    0.87758330856915
H           1.99863385901359    1.27243543299289    0.14636612087461
H           1.57530094650306   -0.07161585274827    0.80893175068379
O          -0.79022444154620    1.49766900055101   -0.36882886546484
H          -0.66166838331800    1.09606124260094   -1.23466670467116
H           0.05745172665431    1.32189467182898    0.12163298534728
O          -0.46241012953296    0.69897459061286    2.77281686853957
H           0.34594656554277    0.90803774469219    2.26994955318760
H          -1.12910528079224    1.34261106614445    2.51826631206527
O           2.19028643391874    1.71637708286396   -1.57926162173383
H           1.62693860391822    1.03432610097559   -2.00644921111460
H           1.90335821682854    2.56662932550155   -1.91464460985709
N           0.51006694079475   -0.23609281522750   -2.61458819307115
H          -0.04736078258914   -0.74339689138458   -1.92773254789702
H           1.26065114240836   -0.86600551283234   -2.87687597440623
H          -0.06932684640875   -0.11682527931572   -3.43834764807917
