    26
        -50.44391867  Gyration_radius:  2.47147648537 Dipole_moment: 4.842
 S          -0.89726065470810    0.58509818851253   -1.81812610045235
O           0.42117437318492    0.64126974306552   -1.26173774827882
O          -1.07200616702784   -0.28943895007788   -2.92929860370350
O          -1.88235236322641    0.14049297561879   -0.66755134272925
O          -1.39557706411066    2.00159244817635   -2.12355194077527
H          -1.19118360739543    2.50882529581896   -1.27631769709939
H          -1.90746684370402   -0.87290790896075   -0.75239384883432
O          -0.63504465343682   -0.28968758947866    1.81824438331777
H          -0.21530075064277   -1.13113680808373    1.57306770121624
H          -1.19881957348491   -0.06808215796480    1.06494836421329
O           1.02919708715602    1.79155695521785    1.68508205227089
H           1.02141974935626    2.20222600881091    2.55176629735624
H           0.50270443798657    0.96162535956481    1.76563747741570
O          -1.47777332221631   -2.32142753489839   -1.07390548502085
H          -1.17700141466155   -2.11531984006492   -1.96834751902161
H          -0.68735822012048   -2.47713660488863   -0.51449166743891
O          -0.91571699847098    2.93148074260248    0.21364368985966
H          -0.07447148565532    2.56469634228385    0.57911734255968
H          -1.62442671431832    2.52765614764368    0.72131323525786
O           0.62133601014781   -2.46802052854865    0.64176730721813
H           1.38313486261250   -1.83792435791056    0.43458253618941
H           1.00585398774459   -3.26987103301060    0.99783324379388
N           2.47573161439117   -0.67411614316841    0.16423409447165
H           2.70925650545870   -0.08901876544021    0.95785947543643
H           1.85627789875471   -0.11415082084545   -0.42273241402873
H           3.32567332633030   -0.83828115398183   -0.36064282316150
