    26
        -50.44549134  Gyration_radius:  2.68769486964 Dipole_moment: 5.488
 S           0.61554246909485    0.91496799429413   -1.78806504972577
O          -0.48061752907885    1.72944264797782   -1.29554618563979
O           0.75299427142285    0.82607703577772   -3.19423857013960
O           1.91174925228473    1.38410014916031   -1.10186962958474
O           0.43635947487508   -0.51990766630317   -1.23560731195525
H           0.34555164171621   -0.49312111457810   -0.21254800960930
H           1.71297832599035    2.26948556497546   -0.63500565290998
O           0.05306490299056   -0.53028212641487    1.26582465896038
H          -0.11182500069726   -1.49656343447402    1.41244258127546
H          -0.82093258029111   -0.10254089874870    1.28280917002062
O           0.24729981136235    2.21360913345755    2.21204265570932
H           0.67153877778845    1.34882863825205    2.19940096621380
H          -0.66966577243476    2.05241166032138    1.94437210928471
O          -1.96931514033166    1.23413012848907    0.80829230797581
H          -2.89984146241040    1.32050935143443    0.59827396934436
H          -1.47503220544905    1.44184711055359   -0.01956983485536
O           1.10302983609736    3.49075406964756    0.03302484329667
H           0.88400736626572    3.16555082597010    0.93947709510785
H           0.27570150157867    3.45065668608999   -0.46334903840388
O          -0.37457375472401   -3.13193143592901    1.36732995727500
H          -0.32398195739599   -3.31376952630024    0.39239318506827
H           0.31440898172858   -3.65614431339095    1.77834313266759
N          -0.08609730678014   -3.43624003038716   -1.29959578380357
H           0.14151883974191   -2.47018351409805   -1.52124194680803
H          -0.92206930083641   -3.67752678461923   -1.81752399281242
H           0.66820656751945   -4.01416016109200   -1.64986562594014
