    26
        -50.44859327  Gyration_radius:  2.50059284116 Dipole_moment: 4.921
 S          -0.98131906252518   -1.85844210386206   -1.36713934793836
O          -0.43183806786210   -0.89535869773404   -2.29482751631806
O          -1.25519554803184   -3.15107211283232   -1.86793470608582
O          -0.00971087506313   -1.92342325103892   -0.14977771880441
O          -2.26961429511502   -1.27842536596325   -0.73725411147140
H          -2.04212589877255   -0.52176527541920   -0.12679723607850
H           0.75202925778323   -1.26564726568330   -0.34979624836484
O          -1.66813101379460    0.52874506468732    1.02135474362145
H          -1.13299093486696   -0.04310355090330    1.66684142725010
H          -2.46422250094333    0.79657097023973    1.48351909791749
O          -0.87392911472308    1.73460769305120   -2.48977489263507
H          -0.79383746147925    0.76032621824042   -2.46933565815340
H          -0.90072060804955    1.98275291742251   -3.41433072909948
O           0.40550350833738    1.94571464234197   -0.12096462354079
H           0.02561269707522    2.14593425597360   -0.99514920375457
H          -0.34344642311016    1.57990247512593    0.37800153935607
O           1.72476450093685   -0.21772801003729   -0.82548269070375
H           1.47434612561079   -0.30248834638391   -1.75373066141280
H           1.31598008797524    0.64289984540700   -0.52472940191728
O          -0.18992136085224   -0.96200793444268    2.49382221020665
H          -0.07695874693518   -1.69240954065944    1.87436710694420
H           0.66712829490860   -0.45688353733564    2.47059193473222
N           2.05536588753166    0.46537080399773    2.11662178581994
H           2.56452663110982   -0.02863608101270    1.39277698639553
H           2.69711094060260    0.66820624464697    2.87224662039719
H           1.75159398025825    1.34635996216697    1.71688128363840
