    26
        -50.46483346  Gyration_radius:  2.46654275714 Dipole_moment: 4.915
 S           0.69357319550303   -1.06276517869465   -1.14704326359111
O          -0.76568633387027   -0.87658060770303   -1.04449923557003
O           1.15598163277226   -0.72496600895546   -2.47871563647143
O           1.35291121235356   -0.28337501501896   -0.09959649391676
O           1.00735259269646   -2.55793796945657   -0.89998849148035
H           0.95588098069028   -2.71977775671069    0.08422778290952
H           1.38356301582144    1.45025700549688   -0.40732085108857
O          -0.00415664407709    0.25158003912151    2.11830144139221
H          -0.80444988362174   -0.28012755882234    2.02317659727742
H           0.53920127182009    0.05908597433809    1.32257016992415
O           1.05388093535643    2.34025080725669   -0.64884189402911
H           0.15557832823309    1.91968644434160   -1.77332651818719
H           0.48344187434473    2.61950992466798    0.10769090862291
O          -1.76786867808203   -1.71554059354930    1.19168885261181
H          -2.55467565502388   -2.23511516557005    1.02258399847713
H          -1.44573377774872   -1.39813246667070    0.30680559691731
O          -0.51145852603766    2.77276568600407    1.46000614400252
H          -0.39179259234165    1.85035369638481    1.79630603647196
H          -0.16514667433632    3.34995517388964    2.14195337012313
O           0.69699085861466   -2.71577061036091    1.67302497171348
H          -0.25295636883576   -2.48052638097197    1.68592650250877
H           1.16441595004942   -1.95662119490683    2.03647105266293
N          -0.39942961422846    1.30100897376667   -2.48659078732953
H           0.31203427815199    0.57279414750294   -2.79825914337184
H          -0.84248604928741    1.81293146556353   -3.24149504927070
H          -1.04896530934832    0.70705715873836   -1.94505605128607
