    26
        -50.44965973  Gyration_radius:  2.46662006067 Dipole_moment: 4.358
 S           1.16923131562399   -1.57367567309234   -1.35683229140782
O           0.95920422010593   -1.51749481016861    0.07361215449120
O           1.09263400457152   -2.86465933840338   -1.93716120542099
O           0.16266485916926   -0.59521372222148   -2.02798291236541
O           2.49939447102663   -0.88628130044986   -1.70922012505784
H           2.34575211541260    0.05916097987957   -1.42384197000233
H          -0.77636183562465   -0.68525049090625   -1.67201728510898
O          -0.82645281786597    1.51849608607656    2.05060428134889
H          -0.92518550203500    1.69605784695117    1.08222540929595
H          -0.96666028497468    2.35654597270053    2.49292618470797
O          -0.92350920692484    1.87918125706891   -0.58332885885329
H          -0.03232849298405    1.70147096284332   -0.91735456081523
H          -1.49304094816905    1.18918610342615   -0.94192084404755
O           1.69302221152296    0.57704428495329    1.58788792216649
H           0.82979361094644    0.89984675734179    1.91413390583348
H           1.51447224528776   -0.31037999468441    1.22558269537828
O           1.92651187326603    1.46659868851926   -0.81350995279682
H           1.88516209534351    1.21532090577828    0.16508717117990
H           2.62044728953349    2.12301831353634   -0.90032639306175
O          -2.21389160901630   -0.68542071249599   -1.08096926097586
H          -2.72098767918332   -1.40285344360634   -1.46387835623078
H          -2.06141928643101   -0.91820219315250   -0.09413685670125
N          -1.58863588079431   -1.27378499804122    1.36018067527433
H          -1.50353783024629   -0.41433174981533    1.89421094115178
H          -0.64526300895261   -1.57993514279783    1.12890024035699
H          -2.02101593860889   -1.97444456924164    1.94712928166136
