    26
        -50.46846776  Gyration_radius:  2.39941834484 Dipole_moment: 5.640
 S          -0.73922713033352    1.07268157067390   -1.27093304392197
O           0.20721882810931    1.31435763154922   -0.18781865764364
O          -0.37550108376880    1.76014592909417   -2.48028967564127
O          -0.86915597997781   -0.38939398030991   -1.48409639359893
O          -2.13698310675401    1.57252426089848   -0.79615658329847
H          -2.27330591698656    1.18348808620671    0.10108363008628
H           0.57024584423625   -0.84255598531100   -1.38287946665327
O           0.21034934983920    0.66495570740308    2.33307139921249
H           0.26093926303334    1.06157449630396    1.43353422436989
H          -0.73703582677889    0.60180291007854    2.50167108926507
O          -2.50412252332770    0.33509377928635    1.53307243332555
H          -2.16085641840051   -0.56414700335350    1.26765227985679
H          -3.44992926591377    0.23896130728964    1.65744009721425
O          -1.42615330172321   -1.86605552855608    0.63311251723815
H          -0.53574988166095   -1.97756556351882    0.99359184621885
H          -1.30281417756773   -1.43129460336886   -0.23901223012969
O           2.21716652601388    1.48182129168044   -2.01637809939220
H           1.31358975229126    1.65107759713241   -2.37185476444579
H           2.25682160916229    2.03467611749981   -1.23001023353264
O           1.29794992669701   -1.53510590183867    1.47765875475947
H           0.90536795271687   -0.69297186439176    1.85829219531261
H           1.91970427854682   -1.85435631809282    2.13272848852929
N           1.61752667068812   -0.95702632960747   -1.16917976013844
H           2.02318168350061   -0.01393714220382   -1.44502930379007
H           2.02908433223922   -1.71400655645143   -1.70510567115991
H           1.68168858612181   -1.13474392809092   -0.14416505203978
