    26
        -50.46846767  Gyration_radius:  2.39941494138 Dipole_moment: 5.640
 S           0.08974155066347   -0.34813688416388   -1.78433827390496
O          -0.97422224977797    0.13777867438226   -0.91302958410392
O           0.12833961002685    0.34690627694213   -3.04244001438216
O           1.38369474224907   -0.26078356435528   -1.06446270736957
O          -0.16696148821856   -1.86359543843273   -2.04200428692073
H          -0.33063608896435   -2.26560648224088   -1.15515019371443
H           1.26904525870422    1.08860687902035   -0.39175146111517
O          -1.88585951682562   -0.67196403239192    1.38703132299522
H          -1.66203915507726   -1.60911522700403    1.34668672749640
H          -1.70374394519265   -0.34960217867524    0.47496050421996
O          -0.65189985624952    2.63253204716009   -1.95495616223798
H          -0.32772728678632    1.89619228617038   -2.52422349697935
H          -1.53476360497137    2.34815343868658   -1.69977353236236
O          -0.00357591399362    0.83981438861381    2.34932775244996
H          -0.29945962518583    1.22323057133292    3.17581559339131
H          -0.76066148395479    0.26476321035159    2.02621634253022
O           1.50179728065562   -1.38021877016086    1.32441290336415
H           1.13361906599711   -0.66352750092303    1.85918035296494
H           1.61789268543889   -1.00269671644621    0.42504277325699
O          -0.40978294632742   -2.89910836470583    0.39940870795751
H          -0.13652274102367   -3.81662373808954    0.34702347022057
H           0.34135061216640   -2.40460388587464    0.83316900753348
N           0.93987700677010    2.00247525706670    0.06905639756198
H           0.48517060704774    1.72293467227575    0.96432587512481
H           0.24570506579634    2.39008760315928   -0.63633495019333
H           1.71162241705183    2.64210747830821    0.22680695221130
