    26
        -50.45086755  Gyration_radius:  2.50517623983 Dipole_moment: 7.625
 S          -0.54253128118257    0.34170046418856   -2.04737165215261
O          -1.15860362677000    0.21171575072176   -0.71848657918010
O          -1.41324472947005    0.89761660219277   -3.02450753971299
O           0.72063652023035    1.12031318015715   -1.88726610190250
O          -0.11040864633419   -1.09551667091816   -2.47641431480313
H           0.57664971280981   -1.32877478450559   -1.82317568121688
H           0.53672151790443    2.23458390280221   -1.00509937172858
O           1.18847048959271   -0.49830924792198    2.09068804970306
H           1.74280710303557   -0.62985896239559    2.86083024958813
H           0.68712794964949   -1.35120012976394    1.96317859488614
O          -0.63326439973794    1.42457895312218    1.53264694189592
H           0.04356220167479    0.81249774179713    1.88358301186707
H          -1.02098103905956    0.92494769504179    0.77682892095530
O          -2.07592305043353   -2.12394316842707    0.04794294125161
H          -2.96629846267951   -1.95801422942774    0.36034154464488
H          -1.75333812543738   -1.27153227579327   -0.32294123164619
O           1.80697080743235   -0.94475264130291   -0.63186133288016
H           1.70156816798504   -0.08451736025848   -1.07301840515529
H           1.65244359756335   -0.77393903448261    0.31060040394053
O           0.03997497829757   -2.77693788254114    1.51726588450110
H           0.61552013344797   -3.16226486821581    0.85227488505704
H          -0.80529551123221   -2.59085412906879    1.04626583885869
N           0.35176220982331    3.01190008057541   -0.23914599537778
H          -0.36467644116328    3.64180822213858   -0.58555817355728
H           1.20413859895747    3.52005890662636   -0.02768896147392
H          -0.02378864521702    2.44869389547165    0.62008808335986
