    26
        -50.44253090  Gyration_radius:  2.56372034828 Dipole_moment: 5.951
 S          -2.32513385427562   -0.14607386602171    1.18206725044110
O          -1.30593648295831   -0.56902068632481    2.11378005166796
O          -3.49505099689328    0.43880426030052    1.71615318481431
O          -1.65297976013386    0.76675891451657    0.12214264837244
O          -2.71310563906156   -1.36567858256764    0.30173714482425
H          -1.88012323008259   -1.78692008022668   -0.02263086377453
H          -1.05040588642123    1.46458368572201    0.59976725624741
O          -0.55125443470902   -0.24671171979912   -2.26280480771185
H          -1.07020153238082    0.22443685701760   -1.59764415336425
H          -0.47835785279820   -1.15073207613364   -1.93748074445433
O          -0.43606129761874   -2.47431558264972   -0.46793622324685
H          -0.45916247623261   -3.42296496992356   -0.32760071192938
H           0.22909263753493   -2.10349918085251    0.15651941849064
O           2.07857775554432    1.16542204732199    0.66474968569475
H           1.85767487215072    0.25551213635955    0.91740009293344
H           2.11280919185798    1.16502205407094   -0.32782327500098
O          -0.10859618294169    2.40196209129974    1.20706403104490
H          -0.08570726352093    3.22837851923652    0.72003128630300
H           0.79387239105872    1.96098131800249    1.06633534834960
O           1.05334755724797   -1.32114272344327    1.42376838255545
H           1.47212339472789   -1.72368042318648    2.18684605423415
H           0.18765296145820   -0.95558795190755    1.75194921705685
N           2.00055334074424    1.08030166067808   -2.02350511307898
H           1.10694369926107    0.62166179576931   -2.21568887775149
H           2.72826170720010    0.51880317605987   -2.44786363965155
H           1.99116738126138    1.97369931673990   -2.49933264302369
