    26
        -50.44815733  Gyration_radius:  2.44963086982 Dipole_moment: 6.050
 S          -1.51220546614360   -1.55866091924359    0.05554121734284
O          -1.64532912243465   -0.98828009519260   -1.26633728309801
O          -2.23403982605500   -2.74213251417637    0.33350955445715
O           0.03355239448523   -1.79714166373382    0.27146395493709
O          -1.80154965442990   -0.49890036815058    1.11791107562795
H          -1.47197212918158    0.45158208971076    0.80691375808983
H           0.39835584534918   -1.98483117682853   -0.65238891154731
O           0.71191270280434   -1.88055974995855   -2.17505017683084
H           1.19113588577837   -1.03201583864463   -2.23080826792522
H          -0.21532303150980   -1.68003857418348   -2.37295848678813
O          -0.85919541543876    1.70360213053056    0.40680470555540
H           0.08377847581504    1.48807216424867    0.54861302087025
H          -0.97748057359282    1.78237795674206   -0.57576907855402
O           1.79901706794452    0.62657035280663   -1.84156917626177
H           2.65696509450762    0.92195653839711   -2.15013892397436
H           1.82393974063535    0.66127915831589   -0.86762462537388
O          -0.89921053137402    1.43612939244335   -2.20322127848716
H           0.03981361568351    1.24741596744513   -2.33964328063901
H          -1.33443442772889    0.57577798207219   -2.07511458010146
O           1.51446968423640    0.44211892692704    0.87970327748101
H           1.14514096306712   -0.44788373295966    0.75499494404584
H           1.33184516508026    0.62860639194116    1.83069096345486
N           0.26263883788403    0.66068429103550    3.25271421133398
H          -0.10886212590656    1.59267363857637    3.39282146426419
H           0.57809555635250    0.31449650027117    4.15036539397365
H          -0.51105871583071    0.07710112161034    2.94857653813962
