    26
        -50.44795668  Gyration_radius:  2.53691938934 Dipole_moment: 3.858
 S          -0.25052017408129    1.30746095813505   -1.61763075500999
O           0.45870672312074    1.37682281795869   -0.35191577775120
O           0.56119153096568    1.01247241589037   -2.74171811249937
O          -1.41185151600846    0.30584915088337   -1.46158247916234
O          -1.01876890041440    2.62291322610419   -1.81761635319796
H          -1.68154032881822    2.64998086736330   -1.06529016698937
H          -1.06418969646851   -0.67038240377013   -1.33811512117895
O          -0.96021959827403    0.95505128972571    1.76665245441539
H          -0.57186055419490    1.42151606802312    2.50940219756246
H          -0.34550922917459    1.08952739420666    1.00273634484513
O          -2.68085381750330    2.28376563464828    0.13417712332992
H          -3.22468359423768    1.60064423103657   -0.26699939507883
H          -2.16741103197679    1.83553366728837    0.83926647279513
O          -0.62354899749116   -2.01892602862785   -1.03469681624122
H          -1.31889364088870   -2.65420870525945   -1.21803810297865
H          -0.51595999761600   -1.99419491988741   -0.02284934175887
O           2.62467344798852   -0.15414237543745   -1.00309334151144
H           1.97175126818164    0.49515266531883   -0.70401141071307
H           2.45987934867030   -0.24202384683248   -1.94504989467749
O          -0.38792294392814   -1.80141215862701    1.50639284646708
H           0.60630562939920   -1.79107712011156    1.57977818296571
H          -0.68231553294934   -0.89935957698719    1.70387903298564
N           2.28338572267424   -1.70141723699628    1.44893269375123
H           2.71244656094203   -2.61729958729191    1.40032016734255
H           2.78492161578267   -1.16682102601567    2.14749917803039
H           2.44278771634451   -1.24542540072662    0.54957037439728
