    26
        -50.47136707  Gyration_radius:  2.40202616124 Dipole_moment: 3.374
 S           0.09322824029987    1.28728962195496   -0.89611680696224
O          -0.96388524770475    0.66060927475938   -0.07182353744205
O           0.15858070867169    2.70641471111558   -0.70578073665257
O           1.43626934840001    0.64818579803451   -0.35219104616711
O          -0.01016952706887    0.82365896390625   -2.26693617564610
H          -0.11946440599460   -0.68538925429576   -2.26436282666173
H           1.72636652085283    1.29097609086778    0.36013833722967
O          -0.24243664102190   -1.34562456657381    1.52855717090039
H          -0.06830823751141   -0.96189937798428    2.39010087075005
H          -0.47288345508747   -0.58755136966874    0.94938336876749
O          -2.36911951400385   -1.60040630963536   -0.51703265945997
H          -2.12707638696849   -0.66132413205289   -0.40396039267143
H          -2.14801779755016   -2.01555645592825    0.32344420608443
O          -0.67224354871460    1.83084103543067    2.28400158225609
H          -1.22832254669068    2.60681868687907    2.37075947290189
H          -0.87235470142244    1.45597268077729    1.39966262123605
O           1.78128541463152    2.50055425565904    1.37656571677400
H           1.37736664145990    3.05170172178556    0.68518364201242
H           1.04043292570764    2.28802187466440    1.97913322793956
O           1.63645540126595   -2.11423468785722   -0.25206291294325
H           2.00606404484129   -1.22281294694560   -0.32396880554812
H           1.04329838315712   -2.06383993780775    0.52476903783370
N          -0.22451164297955   -1.74164487672155   -2.09847382076045
H          -1.13921195077906   -1.86555597900275   -1.59325810274463
H           0.56360150341775   -2.03432297248757   -1.45056571278100
H          -0.20494352915909   -2.25088184885289   -2.97516569821093
