    26
        -50.45690554  Gyration_radius:  2.43508712169 Dipole_moment: 5.237
 S           0.30808535837422    1.26990957778367   -1.31698296585049
O           1.11865508744530    0.70604282296413   -0.24624755482100
O           0.60798785908032    0.71877175354689   -2.59721531718293
O          -1.16258264475963    1.10176142390716   -0.94373337149773
O           0.47725536868376    2.78966801291234   -1.32920168037097
H          -0.04364116642151    3.13272802460372   -0.52757568885800
H          -1.44364320646428    0.06286210155524   -0.73565371434843
O          -0.53864088573642   -1.52907923032122    2.00206881806273
H           0.36997895217563   -1.62194730621859    1.63009927325703
H          -0.71769550412319   -2.32548399783372    2.50390110221189
O          -0.03041332340461    1.30226063370752    2.07973258333418
H          -0.47400700031907    0.47329006465487    2.29570761016126
H           0.51490690377943    1.10076621828682    1.29547081917754
O          -1.67130543936211   -1.24774022144286   -0.43637121970622
H          -0.96283628050865   -1.68843140931172   -1.00887832750116
H          -1.37542036331384   -1.35238671028678    0.49336165395514
O          -0.98765453254886    3.35983859487850    0.68515958993133
H          -1.81201940239662    2.99526828959697    0.34924713826515
H          -0.66899155756100    2.71871927794390    1.36291391180724
O           1.86370362171757   -1.58669291822244    0.81823047111547
H           1.65709222962113   -0.75928032054300    0.33138230635213
H           2.62813989521993   -1.38298555915476    1.36071562483822
N           0.35350163643776   -2.05404898519711   -1.87637699927870
H           1.12971601546598   -2.30684017891132   -1.27620980564291
H           0.56068938968739   -1.14467245100541   -2.28831994977770
H           0.29913897921221   -2.73229750788709   -2.62522428764034
