    26
        -50.45235145  Gyration_radius:  2.44248745449 Dipole_moment: 2.516
 S           0.37573360574110    0.93347376933603   -1.19447486092308
O          -0.18105420231906    2.18535975506339   -0.74558243650444
O           1.04282955672372    0.93551538101185   -2.45013736510602
O           1.31522467433682    0.40167115940087   -0.09678393018543
O          -0.75517976663779   -0.12260950379843   -1.26015418450746
H          -0.87804965019873   -0.59473192723541   -0.38142936312685
H           1.20120327103413    1.01011351589998    0.75155216210989
O          -1.34568803069462    0.74434131446354    2.51652505816140
H          -1.95523219725298    1.17996026008636    1.89056684856157
H          -1.21506282562280   -0.14635010527038    2.16093786460578
O          -2.57126507184504    1.92231376367835    0.41082031484215
H          -1.74616582364295    2.03706219686581   -0.10110275982081
H          -3.07549552461887    2.72928606506522    0.29794878421060
O          -0.89251215603026   -1.49612346072143    0.90916725007010
H           0.03278873224038   -1.88805929458537    0.79554409787986
H          -1.51062890389630   -2.22114075589541    0.79786801348789
O           0.85347436639389    1.93778695817950    1.80499705333119
H           0.51054166236227    2.64759389075634    1.24893439080600
H           0.05136322494071    1.51070024096641    2.23113326294191
O           1.46961436417235   -2.38153414706479    0.39101725314918
H           2.03600126332387   -1.66716423076932    0.69476088072051
H           1.47622384442825   -2.29940370154162   -0.60391526655865
N           1.45179013696955   -1.92193402230191   -2.24855563823622
H           2.26460365055406   -2.24097200063970   -2.76254353276498
H           1.41185173026099   -0.90812716564910   -2.33674071423994
H           0.63309006926782   -2.28702795530667   -2.72035318290787
