    26
        -50.44552745  Gyration_radius:  2.503514194 Dipole_moment: 5.256
 S          -0.48659131650866    0.69006307066379   -2.09249268848199
O          -1.04645394526064   -0.27350311846208   -1.16204756364942
O          -1.41822700066193    1.31041395664429   -2.95986619954067
O           0.24587396771709    1.77205243563671   -1.22122408321328
O           0.67734159179038    0.05949942736253   -2.83531361229281
H           1.22968661592425   -0.43826717399677   -2.11993685355621
H          -0.46969461151557    2.21190158683173   -0.67413021979309
O          -0.64270442132549   -2.40268296434659    2.12594489238777
H          -1.44300641670976   -2.75276616186735    2.51867315896866
H          -0.76773015580110   -1.43671338502466    2.04041923744774
O          -1.73338668634730    2.48018245918869    0.26041053735227
H          -2.51956358040073    2.27456163891627   -0.25085940787710
H          -1.59842311064015    1.74524728571622    0.89831170832589
O          -0.82058130813842    0.22248021550003    1.41767124393018
H           0.11668098231491    0.49810081434139    1.49124590427650
H          -0.93791950659282   -0.05398663697690    0.48306238667858
O           1.82891850985100   -1.11069299479545   -0.92085431276349
H           1.71396760433936   -0.56367021789284   -0.13666914633590
H           1.21823838720217   -1.89404946848892   -0.79702860109951
O          -0.10812709133175   -2.80558766813321   -0.52526045160856
H          -0.72083059522226   -2.13721073469934   -0.86305647094353
H          -0.24908143685930   -2.83564707907299    0.44163391072941
N           1.78676023384484    1.16237734376592    1.25312197260962
H           1.69034697514000    1.63233491564081    0.35675560783150
H           2.71940723727314    0.76751920378551    1.30225413452258
H           1.73509906774110    1.87804325026916    1.96923490652169
