    26
        -50.45396977  Gyration_radius:  2.47101514163 Dipole_moment: 6.069
 S          -1.49035514306371    0.89165517526382   -0.65156806419495
O          -1.49116724612840    0.69963316818422    0.78457640780667
O          -2.03703577600274    2.11254420838177   -1.12474567102596
O          -0.06227778507534    0.71361538361582   -1.17695204636640
O          -2.25766222216384   -0.29106413216693   -1.29677528623393
H          -1.85346468269965   -1.13979953338196   -0.96435712643786
H           0.64799745635725    0.35382731292678   -0.46419687362125
O           1.94655527012432    2.20771588700166    1.65609352886573
H           1.90200662660425    2.22823225909614    2.61378244443649
H           1.14990968008283    2.68458367413262    1.34041444212120
O          -0.46790359464313    3.17446997464284    0.96601091084310
H          -0.94252113993278    2.34993787585112    1.15527107655608
H          -0.82477367269346    3.46345752737689    0.12081013973716
O          -1.05802672989553   -2.48837782709057   -0.57326139251698
H          -0.18102289859876   -2.34565241253155   -1.05679430588589
H          -1.49094316824018   -3.23420509063649   -0.99292427822893
O           1.59474524901350   -0.12968102952878    0.47313391052083
H           1.03483466865030   -0.64066994303520    1.11598556218520
H           1.85673515745363    0.70777397347170    0.93084679710490
O          -0.23326277861275   -1.38088246901564    1.89050989205665
H          -0.54245565832871   -2.06096776686867    1.27891315805127
H          -0.81903323236500   -0.61881987983971    1.72740115430927
N           1.18458358468759   -1.94297951941352   -1.83692577363551
H           1.79485379900500   -1.59900170933317   -1.10204561055370
H           0.92494207755222   -1.13634317627772   -2.39386628664995
H           1.71474213890136   -2.57900193080030   -2.41933670923352
