    26
        -50.45159794  Gyration_radius:  2.41881375313 Dipole_moment: 1.906
 S          -0.33014749077266   -0.07162646853050   -1.83387270290769
O           0.85579912436481   -0.65000146919077   -1.23832797503012
O          -1.01357658172550   -0.92324939942280   -2.74631408798730
O          -1.30189609561152    0.34024702148382   -0.69779957380971
O           0.02815306370790    1.27177059693368   -2.46554103199766
H           0.45195937020545    1.86360180485705   -1.74001280358139
H          -1.88506541305801   -0.55416232672157   -0.52587973102759
O           0.57942600021057   -0.15270327311421    2.33110597756837
H           1.38909403472407    0.05749821148702    1.84688522032512
H           0.02393431856220    0.63091199823279    2.24194769750514
O          -2.38921217684523   -1.84154909985549   -0.45298125572721
H          -1.60755467954205   -2.23710374654825    0.09234991714837
H          -2.25143618471313   -2.09712070700033   -1.37357414288606
O          -0.92232922730134    2.08893314539585    1.31161649009692
H          -1.17391283752545    1.43033931478837    0.63681973526247
H          -1.72122929363507    2.55895750312065    1.55517284834867
O           1.04030527966943    2.59915172863176   -0.54936388142007
H           0.36643236182394    2.64819493328529    0.15247236631489
H           1.73424274932530    2.01233384526191   -0.18766299532421
O           2.53105672643324    0.54062494525007    0.37063035799441
H           1.94059722545232    0.02371053864539   -0.22737758145988
H           3.43010166759991    0.30533429342610    0.13680177305922
N          -0.20641921715160   -2.47455751600318    0.75559198127584
H          -0.06853413290483   -1.79526348445963    1.50621377969398
H           0.41812246248557   -2.19189132860567    0.00489019521714
H           0.08208894624587   -3.38238103130833    1.09620942342356
