    26
        -50.45147114  Gyration_radius:  2.53202045704 Dipole_moment: 5.425
 S           1.93484879741981   -0.67182700325987   -1.00094540607255
O           1.62726491685863    0.47788740969583   -0.16759222076856
O           3.01031945528652   -1.47814598628427   -0.54962404375171
O           0.61645533974139   -1.51117043275724   -1.10939618228284
O           2.11750976818376   -0.22601776657995   -2.43855236554797
H           1.18566776228070    0.21426789187192   -2.74995866684094
H           0.34337883584506   -1.80662992284710   -0.19508111866542
O          -2.23052077696403   -0.49717655726833    0.96172500070798
H          -2.18277511340602    0.10696597032572    1.71884023241696
H          -1.86980707892678    0.04186977214721    0.23047307957813
O          -1.16785513230545    1.59428960588216    2.41754557015564
H          -1.17879919429474    2.17029047459613    3.18184606074006
H          -0.32747855693179    1.07359851238467    2.48057576509544
O          -0.25063652172287   -2.14623572162011    1.24794160912687
H          -0.55797397684798   -3.05382192212640    1.27744322354129
H          -1.06966056656403   -1.56469860347783    1.18630368451745
O          -0.83551918691084    1.40231355690351   -0.39863171136323
H           0.09238597638107    1.09719079053178   -0.29442627131077
H          -1.02381850425988    1.88828439690923    0.41656084555659
O           1.02949261090776    0.09469577246087    2.43485192412015
H           0.76002874346418   -0.82699406351820    2.34110520461651
H           1.43487914735998    0.32214655177181    1.57882120625247
N          -0.12604791663430    0.74251990295939   -3.09598850995512
H          -0.70186180592867   -0.03153436595134   -3.39945142406809
H          -0.09576375270620    1.44575285956177   -3.82198502315135
H          -0.53371325932650    1.14217887769022   -2.25240046264717
