    26
        -50.45166206  Gyration_radius:  2.46208798233 Dipole_moment: 3.992
 S           1.34185175568279   -0.11950232896255   -1.26734984365040
O           1.02203141804318   -1.20570090694075   -0.36891617902514
O           0.80784342968969   -0.24792056919093   -2.58047305665894
O           0.88734555857378    1.21248948062235   -0.61415183621200
O           2.85442869527710    0.08504703017888   -1.30968675643629
H           3.11397447045730    0.40232865781424   -0.38112228370538
H          -0.10267617817555    1.35958716276398   -0.54402905018015
O           3.37212565110054    0.77949450635846    1.09294114541253
H           4.06008291228138    0.21970862492501    1.46105199798526
H           2.53986043654744    0.54067292086271    1.57330796384636
O          -1.54846191782386   -1.89324935005436    0.28408337935834
H          -0.59750751614812   -1.96040665887762    0.11146432124551
H          -1.90622221822644   -1.51693632293837   -0.55894138067965
O          -1.62562072289240    0.11707060445517    1.89531213331041
H          -2.35853535032674    0.00267415076895    2.50176989555970
H          -1.60942924804293   -0.71734791312603    1.32270673418994
O          -1.58401575032387    1.77360912915597   -0.15390269107121
H          -1.68234243917873    1.18943712784114    0.64103155123885
H          -1.51653652860013    2.67322052290895    0.17343560875029
O           1.18026819402691   -0.26169663818306    2.11711485821487
H           1.11645959087929   -0.77592897350380    1.29062336472468
H           0.28354485867333    0.06635312298284    2.26991665898783
N          -2.04053457107819   -0.59891139081798   -2.01972025320166
H          -1.08408992761057   -0.58604559330168   -2.36862355376344
H          -2.28353092162273    0.35752262487878   -1.78851435417613
H          -2.64031369124981   -0.89556902057367   -2.77932835401323
