    26
        -50.45256052  Gyration_radius:  2.45725604218 Dipole_moment: 3.327
 S           0.89514366597373    0.39448442892480   -1.16221929584345
O          -0.26866975691419    1.24268484224802   -1.12506375151501
O           2.12927268086937    1.02608314649412   -1.50052977146389
O           1.06887544246539   -0.27170646057426    0.23332655792577
O           0.63203518834505   -0.79462558677184   -2.08112646585033
H          -0.41081760012904   -0.90177150670334   -2.10668356033229
H           0.34781164600961   -0.00463846479518    0.89275424430810
O          -0.69663832244838    0.43969620650242    1.94153149143796
H          -0.73429059402070    1.41408393394293    1.67795815198316
H          -0.31247413595209    0.41191164824403    2.82047850797584
O          -0.48670123100860    2.83986907792625    1.03359328291133
H           0.48188567195061    2.95886724775329    1.06896124440219
H          -0.64558639968761    2.53578180158937    0.12532852485157
O           2.19514301937593    2.69066446737891    0.61771256262176
H           2.26266230505959    2.08314484959773   -0.14175258919348
H           2.76028771327823    3.43807062512299    0.41090976942094
O          -1.85767935657789   -0.79395078859857   -1.95135537495493
H          -2.06458484571467   -1.17656484836137   -1.05008361626209
H          -1.88613973983182    0.16434659034678   -1.83646644857244
O          -2.05829960401861   -1.64645514233969    0.50913044651032
H          -1.77746615726901   -0.93014535347605    1.09229124811345
H          -1.31526526111395   -2.29192958432922    0.48205636430251
N           0.18980905108312   -3.13091271756317    0.10607552592311
H           0.55294582856694   -3.90215314213343    0.65175833245709
H           0.85581772120454   -2.36675452687727    0.15236237208119
H           0.14292307052179   -3.42808074348746   -0.86094775328843
