    26
        -50.44707683  Gyration_radius:  2.597772168 Dipole_moment: 6.700
 S           0.53635082442937    2.12908663605990    0.21569016672386
O           1.69858104225655    1.30913465221506   -0.10887636069725
O           0.16557001780721    3.04592505626666   -0.79905900831794
O          -0.60573622883713    1.19226433931455    0.60753724078976
O           0.82763386705508    2.85751230569595    1.54391018179845
H           0.88612929155687    2.12259100319857    2.21396679155673
H          -0.96507408218611    0.58997731654258   -0.25696984962669
O          -1.34615071117725   -0.22816891041441   -1.23841241552754
H          -0.62297510791324   -0.92510120992936   -1.26222029314226
H          -2.16096577642650   -0.69646979311746   -0.91924294802284
O           0.72332689089207    0.70206751641812    2.99919559836461
H          -0.20672172265674    0.56516987458854    2.79589696242822
H           1.20250643333027    0.01375987443368    2.49464727069760
O           1.84019309304803    0.13566236913518   -2.52568188647992
H           1.91073994678515    0.66090700889895   -1.70698966402046
H           1.24230315875466    0.62374957782602   -3.09484060262833
O           1.92363272055662   -0.92232443880417    1.16782607083785
H           2.85324427586675   -1.14590593425862    1.24404459758609
H           1.88606104522883   -0.07788534678657    0.64782542797224
O           0.66141458185116   -1.87808841785781   -1.16762866971136
H           1.20626428558976   -1.34322230675529   -1.78186627640998
H           1.05572601982876   -1.74624239412045   -0.29076652107020
N          -3.47295898658579   -1.60238603772916   -0.29050838350596
H          -3.17164535236315   -2.53883915990399   -0.05130986159999
H          -4.21340229805071   -1.67488018641937   -0.97664647905079
H          -3.85404724864236   -1.16829340443013    0.54047890110751
