    26
        -50.46564931  Gyration_radius:  2.44775682236 Dipole_moment: 6.111
 S          -0.47952998230283   -0.23133818467976    1.01157962890794
O          -0.80348868227941    1.08675748374300    0.46704760905704
O          -1.24484444367696   -1.28292764176540    0.37663351448716
O           1.03451819086550   -0.46833381443690    0.73467808309419
O          -0.56584095053604   -0.24355177696201    2.47200585982430
H           0.61630640896792    0.42207895208095    2.85158104997073
H           1.18976209646072   -0.52806184302749   -0.29577803228093
O          -0.74686191029041    1.00927454868528   -2.20739413203162
H          -1.47099823830403    0.38862851102688   -2.39577932878209
H          -0.84785648797117    1.21421805172757   -1.25859845318837
O           1.29795821117736   -0.58231476060046   -1.74941914032853
H           0.89404082190790   -1.46413722786366   -1.91380265047918
H           0.62378240574036    0.07213081222811   -2.07176579476651
O          -0.29979104431558   -2.72401556161672   -1.74276903453005
H          -0.59366033760659   -2.44113554531349   -0.85953563103060
H          -1.04663438493426   -2.53735419635744   -2.32071361048252
O           1.37546031330930    2.43324851694429    0.82110262126525
H           0.47100729235014    2.06195548256251    0.65016526863096
H           1.90047029893183    2.18281163880931    0.05654601423063
O          -2.66636318612371   -0.93242011149858   -1.86577596328536
H          -3.57687070794191   -0.70031750002682   -1.68007670192658
H          -2.23221945435951   -1.05400851683278   -0.99542832774767
N           1.58695065944879    0.96047869759681    2.98478495466483
H           1.62802548053268    1.62621467977537    2.14922314482881
H           2.33249309827413    0.27405067114620    2.91255908835223
H           1.62418451718160    1.45806862853266    3.86892998266595
