    26
        -50.45006367  Gyration_radius:  2.4859618244 Dipole_moment: 4.606
 S           1.31740435267382    1.85877047879918   -0.75510691387442
O           0.70107545976628    0.77855575904776   -1.49807653306266
O           2.20841158466200    2.69148398802159   -1.46927144301345
O           0.18313422375111    2.68863441871736   -0.11756332602675
O           2.03581757725710    1.23171245024016    0.47538363261194
H           1.80598199724926    0.25273184496236    0.57352475289559
H           0.13011864557526    2.51633183382281    0.89094308777157
O           0.79744440267748   -1.94855783374911   -1.54483348895736
H          -0.16419932489100   -2.18071751637709   -1.45902163047867
H           0.81234717486797   -1.04147022132651   -1.88544309240695
O          -0.90173922447146   -0.27863349424438    1.82145827222253
H          -1.35364838276744   -0.05748524452701    0.98304457632907
H          -0.12387927941082   -0.79921034420453    1.57423070849753
O          -1.77824769894168    0.61228584448194   -0.59570687803469
H          -0.89366823589011    0.66142399788097   -1.01867682576256
H          -2.07140365129317    1.52206693367706   -0.50846883767449
O           1.49162221316325   -1.25186874691146    0.79794714690650
H           1.23035508785876   -1.59667747415420   -0.13127516286136
H           2.28549338512996   -1.72700139684465    1.04884365509373
O           0.08954485913334    2.08667695832239    2.33571214743728
H          -0.35369789716802    1.19307403555900    2.28676698878894
H           1.00452172810061    1.92742455599156    2.58149336679211
N          -1.84602770139876   -2.30859805366603   -1.14561458477939
H          -2.11641911911049   -1.33540695424226   -1.03894496627292
H          -2.10341253862295   -2.79476595952160   -0.29598360041956
H          -2.38692962789987   -2.70077984975874   -1.90536106173375
