    26
        -50.44485667  Gyration_radius:  2.48282585253 Dipole_moment: 6.282
 S          -0.01676801546519   -0.68262712599953   -2.21914166760358
O          -1.19446143481765   -0.66260461394518   -1.37810182832337
O          -0.19446491768503   -1.05281389560454   -3.57193677179562
O           0.62890066421239    0.74373722401788   -2.10977953460153
O           1.05398335446295   -1.56811395325202   -1.56897967798021
H           1.05680068279679   -1.41789479874624   -0.55973181443519
H          -0.09866960187979    1.35979962924422   -1.78537988391179
O          -0.11180533870808    1.47778969796654    1.36901141518469
H           0.80503641502536    1.58975278811231    0.96224825461820
H          -0.12032310556819    2.00336190282352    2.17077004458051
O          -2.19125518956802   -0.56824820836743    1.12076152332796
H          -1.67374755011252    0.18922611738739    1.41604847132612
H          -1.97122520410958   -0.68412800509419    0.17935569327007
O           0.99695783289938   -1.17652299220677    0.94089928196978
H           0.43188126152929   -1.89976119076710    1.30769388608876
H           0.51892960144734   -0.35731660073883    1.13357165115587
O          -1.31987351556142    2.01773367457315   -1.04133374058094
H          -1.88907158321899    1.24811381745579   -1.17417481677130
H          -1.01654293794763    1.96795055012075   -0.11515114813800
O          -0.89936498971570   -2.82221595926455    1.78537221035566
H          -1.53852559817605   -2.08207224150058    1.68695197759705
H          -1.18221625873765   -3.50605129501673    1.17646410466757
N           2.26188185010597    1.52402485537528    0.22232968310166
H           2.75404680705901    0.70343057113954    0.55655826412276
H           2.90168460972582    2.30795759948816    0.24202196693073
H           2.00821214200819    1.34749245279729   -0.74634753416448
