    26
        -50.44599770  Gyration_radius:  2.5670029113 Dipole_moment: 4.748
 S          -0.55975416980638   -0.68210717692888   -2.08023082682922
O          -0.87737250109682   -0.26220915624821   -0.72783551112336
O          -1.23087529451601    0.05176593399909   -3.09000244850070
O           0.98467391432838   -0.60858186574091   -2.23264331231771
O          -0.81839906738719   -2.18486461441656   -2.22047971488724
H          -0.15055542678051   -2.65897858380197   -1.62420298855661
H           1.18768042117684    0.37336133667350   -2.06940833046695
O          -0.13449863986231    0.98166616595784    2.78475750951539
H          -0.24962517554183    1.49772568868179    3.58323608838271
H          -0.98331177395391    1.05089676782476    2.27377561078606
O           1.07114849055612    1.83543660066039   -1.60091686209818
H           0.12830954867291    2.01468670317036   -1.59944660057664
H           1.36971662673555    1.82696460388894   -0.65119559298937
O           1.04121100782770   -3.11714704996195   -0.72298357806178
H           1.02058728934863   -2.54798992440260    0.07521515480986
H           1.80516225287376   -2.82926860334392   -1.23073679372259
O           1.80451471174287    1.49820270715458    0.91037472161815
H           1.10725018088364    1.51394871613771    1.59279342414705
H           2.03700878307650    0.56274026711382    0.84586587921401
O           0.87040363262982   -1.13044605906115    1.06050543863875
H           0.19982994426161   -0.76258627937873    0.44638934506668
H           0.58423159055512   -0.84743910626339    1.93662465021296
N          -2.36704320989990    1.13788374302279    1.29191881471751
H          -1.96574429253611    0.64755994476318    0.49367250481203
H          -2.70181079369773    2.03390694540883    0.95954096025754
H          -3.17273808960567    0.60487228507999    1.59541245797013
