    26
        -50.45045170  Gyration_radius:  2.47857961691 Dipole_moment: 3.911
 S          -0.52525258073116    2.12270769969126    0.07730307665331
O           0.42750787900875    1.44184684577460    0.93364190952958
O           0.02034197650959    3.14806847590068   -0.73850715569885
O          -1.21351004421860    1.04606988078279   -0.80355804067443
O          -1.68640726157639    2.63276082518845    0.93041685150253
H          -2.10026187843155    1.82609633034363    1.38572153811363
H          -0.55581809525144    0.84823999776100   -1.54870562333064
O           2.35676361930282    0.20942192600299   -0.53805867208483
H           2.32256882971743   -0.69296055353706   -0.16518656971257
H           1.87942130859221    0.76971591923983    0.09578842023216
O          -2.53392017894352    0.50726011380237    2.08654656249551
H          -2.41070128379970    0.59030802939037    3.03498987568985
H          -1.89912304393463   -0.19003939442694    1.78112116086536
O          -0.52606734045400   -1.00958688680887    1.24782087160112
H          -0.66420618461782   -1.32728309107548    0.31791915761918
H          -0.09348701091966   -0.13593419797251    1.16246216290041
O           1.95636688844642   -2.12643077583645    0.86441644172486
H           1.05988534748208   -1.87367219828343    1.16164785386501
H           2.50621524832151   -2.17303244635178    1.64775914956326
O           0.68483051077389    0.74216122188195   -2.46184744736499
H           1.41354908419754    0.47637735985316   -1.82899811181042
H           0.85101136732421    1.66586052186186   -2.67092400811711
N          -0.39043389420355   -2.00852161015088   -1.25836081685479
H           0.46320546283717   -2.54431109386582   -1.14997068050797
H          -0.22791032375717   -1.31185086924470   -1.97531977242035
H          -1.11456840169000   -2.63327201994033   -1.58811813373879
