    26
        -50.44401704  Gyration_radius:  2.63507324834 Dipole_moment: 6.434
 S           1.94090215399560   -0.51776307559378    1.46787072857591
O           1.73347089085739    0.89542884575849    1.24091478578605
O           3.18407340520579   -0.91214744153802    2.01510209581810
O           0.77141045363725   -1.05749303100444    2.31794484458929
O           1.75329448508438   -1.24629013078887    0.10415819019000
H           0.88220489732491   -0.95033035178490   -0.28948414333646
H          -0.00704457512758   -0.39911355732238    2.39483618676817
O          -0.97896096131559    1.97050898031024   -1.42518193141756
H          -0.65151989862074    2.33394921950904   -0.57783722580373
H          -1.93478102717103    2.04944103201050   -1.39765684423429
O          -1.22918915382054    0.50799725956358    2.41660710724155
H          -1.85200148279397    0.07144745989314    1.79484643549385
H          -0.98892422654556    1.35924226285382    2.01427574958088
O          -2.58051433045379   -0.88130409826647    0.55201058817344
H          -2.64960323810732   -1.78316546959119    0.86896307247024
H          -1.86130136503343   -0.87318940873250   -0.10949269505280
O          -0.14542683852253    2.65740529710553    1.05084949036053
H           0.18555802329973    3.49374189601160    1.38175948798446
H           0.61900706845563    2.02925175242489    1.09109612148886
O          -0.44673447298683   -0.60816855405784   -1.08895117968783
H          -0.11476496366633   -1.02360968001742   -1.92019023753649
H          -0.55062908125358    0.35601157199392   -1.28014515812221
N           1.01222328243775   -1.75978698242164   -3.03452471988033
H           1.75273432487195   -1.93771874405532   -2.36406186631808
H           1.37902981915123   -1.13667945982963   -3.74331514649835
H           0.77748679117273   -2.63766562237490   -3.48039373656751
