    26
        -50.44570158  Gyration_radius:  2.447117766 Dipole_moment: 3.935
 S          -1.36575194881421    0.43506487553741   -1.46028481569747
O          -0.51132809548805    1.57794423237680   -1.63933843339628
O          -1.32037604882147   -0.57380333969733   -2.46477060790769
O          -1.02753055390629   -0.22422786344882   -0.09528995351952
O          -2.81150488755359    0.91804275014577   -1.21243680931647
H          -2.68311752836851    1.55711782938118   -0.45570442576420
H          -0.52147905176881   -1.09861390419498   -0.28175970320204
O          -0.03341964427730    1.03745697259346    2.24451895212733
H           0.19384382880995    1.25265087249561    3.15092348421366
H          -0.12563785935218    0.06274234010091    2.19940811723791
O          -1.81622187363020    2.45269262026481    0.61282271561672
H          -1.30605956108898    1.92321368131973    1.25354455442842
H          -1.17765438696443    2.71232049312796   -0.06349586910454
O          -0.28813742199128   -1.69071908877541    2.18202591150102
H           0.17771220116297   -2.09989383941806    1.44433070387322
H          -1.22298447630589   -1.77415587900890    1.97995527581696
O           1.64987995089842    1.31224509316774   -0.00418993349610
H           0.98246002054523    1.51421181355806   -0.67967519699293
H           1.15792615548479    1.25398530376059    0.82898527548359
O           0.21702103321758   -2.32005860094540   -0.70637084405178
H          -0.18653971117453   -2.38474560108018   -1.57868601534093
H           1.15644749386896   -1.93647190465665   -0.85950672716393
N           2.50483269214639   -1.15193648276752   -1.06844189921574
H           3.33906412688458   -1.52694475702774   -0.63534078264947
H           2.31251893412395   -0.23593414940233   -0.64375896262702
H           2.70603662241352   -0.99218346739873   -2.04746404077750
