    26
        -50.45613128  Gyration_radius:  2.45129925444 Dipole_moment: 3.990
 S          -1.27884710348265    0.63997101550032    0.95480445946340
O           0.08595370254502    0.63473495889031    1.42971774050470
O          -1.72413273502829    1.92326732295247    0.50052000055288
O          -1.40098470525428   -0.39361953956451   -0.19557365635532
O          -2.22243257993249    0.07792205847701    1.99317912551734
H          -2.07691082846898   -0.95979035961262    2.00518097765125
H          -0.89192380602683   -0.06288215310687   -1.02175558398095
O           0.78520608015742   -1.96692640673809    1.67428800292630
H           1.15314153220586   -2.07296199249713    0.76596051211696
H           0.70916561556003   -1.00646501607852    1.79182866079976
O          -0.14423263708560    3.18470956589320   -1.23316069489663
H          -0.38046428034382    4.11075845850121   -1.30273435005810
H          -0.74635783951570    2.80309926636550   -0.56200522021006
O          -1.75659838945301   -2.36779681099212    1.80086677569972
H          -0.74852428802466   -2.35369494634223    1.82468445407337
H          -1.99611996345731   -2.53455098271397    0.88490914194679
O          -0.05057780064447    0.52951086215065   -2.12619374996768
H          -0.40703136524678    1.40703615492004   -2.31573981719551
H           0.78829448902823    0.72368117524428   -1.63105243796760
O           1.84579223138764    1.31134285849141   -0.48125519507540
H           1.62398758600187    2.23533898185946   -0.65526327282209
H           1.35451834576104    1.07969191198147    0.33084196056963
N           1.76317059057148   -1.81647895434080   -0.86837526504799
H           2.24568798211891   -0.92860616170072   -0.78073075467769
H           1.04153268413864   -1.70057373222097   -1.56967339071338
H           2.42868750248852   -2.49671752534244   -1.21326842283420
