    26
        -50.45425034  Gyration_radius:  2.47728389565 Dipole_moment: 8.320
 S           0.00790875439570    0.39263356388136    1.32179936640596
O           0.16399175646248   -0.92361053087989    0.73765066467281
O           0.96262831719794    1.35981072092180    0.87745752229728
O          -1.42837087137152    0.87480230816125    1.04226551552855
O           0.02690913306102    0.27553719703146    2.83801473423568
H          -0.54529464106132   -0.57666982063639    3.03768142114072
H          -1.57560450123703    1.07473597417361    0.04208932115810
O           1.71066316344526   -0.02370300345833   -2.68676231369749
H           2.28203691308411   -0.30252928924378   -1.94840332333912
H           0.92235991366753   -0.59467544862056   -2.63008355523979
O           0.67975691342602    2.18998633515973   -1.73303582385790
H           0.97069888537914    2.11552684572914   -0.81158983929858
H           1.13600501108476    1.44464734266008   -2.21617219070353
O          -1.69124074299866    1.37135323015062   -1.41685838771928
H          -0.75097624095437    1.74036261485269   -1.63137101026885
H          -2.30427384522151    2.09145707627451   -1.57769986071826
O          -0.63311296387016   -1.23416153419577   -1.89569900027168
H          -1.22683644590484   -0.47763949773475   -1.96243632729548
H          -0.35541952165112   -1.27393722103952   -0.96854907174425
O           2.74174550839945   -0.57469426246925   -0.19276900009655
H           2.78577436789351    0.31195232524419    0.17720690630628
H           1.90144870385490   -0.93470144548768    0.12370147113092
N          -1.33355291670460   -1.86543447078263    2.94100375766137
H          -2.33598832718180   -1.73607686525440    2.91075141633088
H          -1.11091979033697   -2.59657317734840    3.60338373656624
H          -1.00033654418026   -2.12839896674120    2.01842387130441
