    26
        -50.46538198  Gyration_radius:  2.44654083358 Dipole_moment: 5.758
 S          -0.51188226825270    0.24549154081300   -0.60904350446518
O          -0.64078400985887    1.62463830638061   -0.09836842873022
O           0.60851085698749    0.14800482413304   -1.51428148810294
O          -0.41360063833045   -0.68439980878630    0.51632928648454
O          -1.78696027149574   -0.10076849829722   -1.41026798870365
H          -2.59149370334404   -0.01541337025936   -0.81637032299563
H           1.17427722875928   -0.55905035390547    1.18071479368179
O           2.59160036563575   -1.61116745540428   -1.01922344167847
H           2.04206395276446   -2.40758677711499   -0.92623407398267
H           1.97983774412025   -0.97031093667257   -1.42594146145471
O           0.20866452374540   -2.96411865436948   -0.79060246441177
H          -0.07942855963341   -2.21876533278715   -0.23372775328612
H          -0.32139802232939   -2.91653097781457   -1.58775999436722
O           2.12943837477708   -0.34110197088383    1.21401267743865
H           2.51177062783797   -0.90573972173533    0.48469776900475
H           2.12737843966018    0.98266353566545    0.62810860932949
O          -3.77609438878396    0.26828483306393    0.19852471696228
H          -4.26072185241776    1.05644198207890   -0.05579397649502
H          -3.27288075104538    0.50073654071207    1.02064088185324
O          -2.03789771461124    0.94673272195815    2.05985484432492
H          -1.51667852797122    1.38453038404219    1.35817532246830
H          -1.58561000181622    0.10728310549997    2.19814790092029
N           1.93548592044014    1.92492274576930    0.05288030631347
H           2.36215198886718    2.74825656279090    0.46618216378235
H           0.87220752729745    1.98664167387530    0.01203305475330
H           2.25204316905774    1.77032511096236   -0.90268742863843
