    26
        -50.45413101  Gyration_radius:  2.48874708652 Dipole_moment: 1.719
 S           0.19349252123233   -1.70586350093012    0.48399527740175
O          -0.26468524939554   -0.48520064103440    1.10598269081448
O          -0.83804534140817   -2.62620029358854    0.13109495722843
O           1.03131585037481   -1.35224155167869   -0.75554320544982
O           1.19211492354980   -2.40926057843696    1.41038286974907
H           1.97902868906080   -1.78489099858084    1.54023737082637
H           1.05158388904254   -0.35671073611613   -0.99096818461317
O           1.08693046446469    1.08732328331998   -1.44417033659939
H           1.50927815208034    1.10409626920584   -2.30523157118454
H           0.09003452125218    1.26695066814105   -1.61671994466592
O          -1.93220309549523   -1.31867989834828   -1.94152842612718
H          -2.68629160867629   -1.81854439961384   -2.25888307287595
H          -1.55140266093079   -1.83388361246389   -1.20752592591473
O           1.59980760181374    1.40271769068282    1.26908619459250
H           1.63509552652071    1.63657905830548    0.33178006393425
H           0.80211271659004    0.84394633533588    1.34391058816171
O          -1.40189005393530    1.36576665007968   -1.86415033232416
H          -1.65541560843873    0.43973094809073   -2.02442078464778
H          -1.78434906473815    1.58054318434099   -0.97738456782674
O           3.06937699134346   -0.70734359557060    1.74136740829483
H           2.62415264236499    0.16820745454793    1.56529483102661
H           3.35640233316232   -0.68651397634613    2.65681581449029
N          -2.25099300362484    1.60080628819467    0.68345446787932
H          -1.97859910833339    2.40070454314848    1.24075263799716
H          -1.66797086698885    0.81570577587234    0.96571420033048
H          -3.20888115088170    1.37225566344361    0.91665699950826
