    26
        -50.45108164  Gyration_radius:  2.43124195845 Dipole_moment: 1.769
 S          -1.24119981250714   -0.32208405146932   -1.65182406766574
O           0.17003560793256   -0.61227806115856   -1.74314107229027
O          -2.11209148227247   -1.28710377924113   -2.21657106259686
O          -1.57914140408235   -0.10377763783434   -0.14056465355323
O          -1.52854342893981    1.07359557854409   -2.21482252338275
H          -0.92779809475023    1.71541463244456   -1.71746427682476
H          -1.19066859315893   -0.86040205874515    0.40242091292263
O           0.60737930161491    0.40179432953772    2.26361321459049
H           1.18482621520247    0.48517417960925    1.47520517132596
H           0.20530501170880   -0.47094295838949    2.20587339220901
O          -0.10224202758522    2.69349575851892   -0.83066122908171
H          -0.50046280255256    2.54858547675208    0.08821597493442
H          -0.31511025715422    3.59639669180899   -1.07456756070101
O           1.84158713139660    0.72540667096655   -0.12210451494477
H           1.63230228724723    1.64289167432378   -0.32570400068469
H           1.30008652155407    0.20775725406048   -0.74749201772950
O          -1.19301013432770    2.17148710609728    1.45126550711346
H          -0.51163146111961    1.61842833780246    1.90996185896100
H          -1.85556706441412    1.53932188856632    1.15399033357463
O          -0.55339729393918   -2.03467913245184    1.19667246452727
H           0.32820521385477   -2.24718948645103    0.73470855950215
H          -1.11063682543091   -2.80932962437740    1.10368104515116
N           1.66275034665780   -2.44845822085249   -0.11890086101779
H           1.32289317590176   -2.03617414746984   -0.98503081737554
H           2.07398615355677   -3.34889882080575   -0.32805554909224
H           2.39214369561503   -1.83843158977383    0.23129578214591
