    26
        -50.45318501  Gyration_radius:  2.46046374544 Dipole_moment: 1.627
 S          -1.70651543957403    0.08523699267205    0.79102431732189
O          -0.56949576152256   -0.76951790603866    0.56373376650504
O          -1.86628504947400    0.53523722341528    2.13308510687998
O          -1.60818842212455    1.29756095398519   -0.17272971620140
O          -2.98437855114683   -0.61165536056221    0.31455026679618
H          -2.76362207823241   -0.90147130844782   -0.62719890596141
H          -0.67001612596963    1.44190656177881   -0.51595728827304
O           2.37458970723243    0.64017728309309    0.56285959253013
H           2.37462594364309   -0.27943082462806    0.26068736812450
H           1.88891036268897    0.64510990763987    1.43010092930406
O           0.74679147907368    1.71810634929430   -1.07678642002691
H           1.42329199859040    1.30658675729038   -0.43108166302052
H           0.93608133104787    2.65738492786217   -1.10560834715631
O           1.59650633962635   -1.87876867206306   -0.43922761271977
H           0.78516389713902   -1.53360428160677   -0.01408276546329
H           1.61957305788788   -2.81871360037998   -0.25519141026717
O           0.27260788774449   -0.61055146783962   -2.53559516977624
H           0.83612763789762   -1.17515284425664   -1.98160254260452
H           0.44517642378352    0.28986026727879   -2.22587175741810
O          -2.27069104010695   -1.13710579363285   -2.07880553862137
H          -2.72268441469384   -0.53919632904060   -2.67796061899537
H          -1.29722246624340   -0.99685459031266   -2.23662767176260
N           0.95840392691071    0.67019169695894    2.85443847320582
H          -0.02334249273092    0.59542847717307    2.59333186242483
H           1.05543585430190    1.49806471360346    3.43028000528279
H           1.16915597443297   -0.12882915323735    3.44023573984580
