    26
        -50.47153662  Gyration_radius:  2.41210448438 Dipole_moment: 4.077
 S           0.81701550236753    0.62533283575871   -1.05938625285022
O          -0.58940420941633    0.40506792768065   -0.68707476707081
O           1.19763290702479   -0.23665066501191   -2.16443644403634
O           0.95073559740361    2.08725550604960   -1.53118907597186
O           1.67667865157736    0.42731984103207    0.10514660685761
H           1.33893706995083   -1.05396529602215    0.82672680667715
H           0.52096367743112    2.63699611819703   -0.81498627979033
O           0.76274249902633    1.70110975915610    2.23637743831926
H           0.04096865127720    1.07715362561217    2.41255210176309
H           1.29902800243011    1.25407912659726    1.54922299167764
O          -1.26786988185019   -0.14851492166001    1.76674425566044
H          -1.02666980227615    0.10412540033533    0.83990132683579
H          -2.11425466428723    0.26452735033479    1.94332231494954
O          -2.18201670041158   -1.53849284726744   -1.48207605087666
H          -1.68290010048194   -0.70628086295318   -1.31224924366375
H          -2.82904091694605   -1.60838211867577   -0.77769037151951
O          -0.03389950661583    3.43594550419194    0.44576524962863
H           0.21166543932352    2.84783681832329    1.21269133715273
H           0.47705772536905    4.24084759228138    0.55355975692090
O           0.87498161545865   -1.87331619961604    1.11373902424295
H           0.10146105073394   -1.55471623768416    1.59805521884600
H           0.52630825621284   -2.43980238347165   -0.32874525543111
N           0.29300888030335   -2.51898310015857   -1.36532738647929
H           0.64114202689293   -3.37611907882883   -1.78015677313836
H           0.73481422039692   -1.65034211380220   -1.81278526912243
H          -0.73908596091272   -2.40203155040990   -1.48770125957280
