    26
        -50.44938740  Gyration_radius:  2.46568202819 Dipole_moment: 5.979
 S          -1.06200645587621   -0.49048250613450   -2.15228277559752
O          -1.12931007981419   -1.52818536720018   -1.14590066935682
O          -2.13933013938017   -0.42563621396662   -3.06938350076442
O          -0.87725032661831    0.86782353750230   -1.41693013039514
O           0.27487721556995   -0.61599046056051   -2.90210029143225
H           0.95939621414866   -0.72317620456245   -2.16824855771506
H          -1.32504472208721    0.91347430985805   -0.44475492238678
O           0.99499673231874   -1.52728342710849    1.52097447321077
H           1.33413330058296   -2.42073892115950    1.59909087188296
H           0.02313605568509   -1.59693300618832    1.54708937143703
O          -1.72987981142516    0.99251365815662    0.90562290420295
H          -1.89366950503976    0.07717057524581    1.19462589096804
H          -0.86307454457317    1.25714062217005    1.34589022938864
O          -1.74426326464500   -1.70684892464977    1.33986404347549
H          -2.43705875756755   -2.35126387169788    1.49140773862745
H          -1.56954364121626   -1.70967264795701    0.36387600370725
O           1.52407242288625    2.06939188586994   -0.95962629630286
H           0.61223356628182    1.79577924835318   -1.17455166240722
H           1.85947618962090    2.52872110146616   -1.73143697525121
O           1.89734778008460   -0.64397160765473   -0.92751206905905
H           1.98271549843814    0.32067251518306   -0.82053749774441
H           1.52156399647066   -0.97875161532788   -0.09008240686480
N           0.68293618612752    1.46246385831861    1.87232304054403
H           1.06835802918786    0.53272307626514    1.99836874626452
H           0.85265246539795    1.99501393031763    2.71487877302498
H           1.18253558544198    1.90604644542853    1.10933565856494
