    26
        -50.45122988  Gyration_radius:  2.47892195392 Dipole_moment: 5.280
 S          -1.26002049767846    0.52207977981512   -2.02466296774244
O          -1.90557021873947    0.89006707018814   -0.78489145330897
O          -1.68285634792087    1.19445029114311   -3.19607178818458
O           0.27577131665038    0.65289030166632   -1.83196336023136
O          -1.41104550908758   -1.00497592566153   -2.21148088705606
H          -1.31405288505426   -1.39760773886834   -1.29720877019456
H           0.56121110615488    1.29801716028445   -1.08184173555869
O          -1.18888604089574   -2.01356495823479    0.15899445888530
H          -2.06348137367091   -2.32486477826653    0.39919525112942
H          -0.91124855870319   -1.39879902581607    0.89704057864655
O          -1.31450245468692    2.08262004699851    1.44191738101740
H          -1.96129701923019    2.75020143044058    1.67375735568126
H          -1.63460238653538    1.66036004334977    0.60936630313064
O          -0.43277536599783   -0.45734486071680    2.12824030351775
H          -0.81493831230539    0.43060979884641    2.04949298924676
H           0.52510659209197   -0.34515151741789    2.01283150364423
O           1.05592382641081    2.07200019739810    0.10690463639861
H           1.57066741441237    1.39243490988903    0.58820666450401
H           0.27310651235178    2.25122230017928    0.65997242266217
O           2.17769917069352   -0.08232535377538    1.31158202131677
H           2.06150169097408   -0.72431646135348    0.54614912314054
H           3.06844484172053   -0.19679551794055    1.64348179851525
N           1.69568294720747   -1.69078385337420   -0.73063494654401
H           1.37107381153842   -1.01193180147615   -1.41388105226983
H           0.89182849363703   -2.25183197378443   -0.46999903971895
H           2.36725926669229   -2.29665956351070   -1.18449679064317
