    26
        -50.44403127  Gyration_radius:  2.49088307971 Dipole_moment: 5.673
 S          -0.49351583271958    1.48905081185595    1.92491896358988
O          -1.31405129823447    1.96648847044984    0.84157319163136
O          -0.82869765863462    1.89361742509600    3.23757552776058
O          -0.43595127304487   -0.07073031157549    1.82440992211773
O           0.98523356104563    1.84053349911360    1.64088591581477
H           1.17090898756663    1.63287620890685    0.67030530936142
H          -1.28502667587263   -0.44555816956660    1.39163696388462
O           2.16684180021370   -0.90871240072577    1.38345162650444
H           1.26998925252996   -0.71409291500229    1.69402356349493
H           2.69918582098917   -0.15084124603432    1.63476391612536
O          -2.40285900709641   -1.11011831158670    0.64498526641515
H          -2.52779669124050   -2.01755914512742    0.92993955507259
H          -2.04397766226272   -1.14821812197983   -0.28912291649362
O          -1.13257574687171    1.62412947942211   -1.72775588656560
H          -1.32183409186621    1.75732403818348   -0.76602404224865
H          -1.57761183522649    2.33680844275163   -2.18819151535398
O           1.35512203516203    1.16016393424855   -0.80502719604098
H           1.39695446217770    0.19513273732042   -0.81650360896338
H           0.54792277221604    1.40880328189848   -1.29551165173257
O          -1.24148804212460   -1.12215793855752   -1.68549607438695
H          -0.29881441152204   -1.35876973033671   -1.56350018381957
H          -1.26500216934179   -0.17489921822801   -1.89694128720685
N           1.41463660863646   -1.85607251168263   -1.24396802635276
H           1.20862601617662   -2.84456745177193   -1.33619345072913
H           1.79232922569305   -1.72685185786608   -0.30383623775155
H           2.16145183363889   -1.65577899922004   -1.90039763413805
