    26
        -50.44594985  Gyration_radius:  2.47480036645 Dipole_moment: 4.620
 S          -0.24123431003776   -0.11368688681969   -2.21553840555047
O           0.46540449174242    0.82917863163718   -1.37672321339633
O           0.14159590064151   -0.14928923199065   -3.57749062443950
O          -0.15981490164405   -1.51174875405702   -1.54882549505632
O          -1.75880891669963    0.18686464074371   -2.09263344445128
H          -2.15051565864800   -0.40793494394531   -1.37757569535261
H           0.76323489563000   -1.63068066025576   -1.10858279432846
O          -2.56905946737137   -1.37374299957614   -0.21891078979127
H          -2.01230955172646   -2.12230077799964   -0.45349570667132
H          -2.17797923687138   -0.98360763580805    0.59354728284502
O          -1.35430255304693   -0.07169813949554    1.79234011545589
H          -1.30223301244907    0.76991203655228    1.26488392654218
H          -1.78103626989651    0.15082623710542    2.62131543020735
O          -1.28998981579033    2.00340210967383    0.18410601671576
H          -0.56833981435709    1.67242515202248   -0.39652173992499
H          -2.06574859933549    2.04848736442306   -0.38012455054228
O           2.01037814152778   -1.83484454016181   -0.33584474317440
H           1.82080340256706   -1.38970138922568    0.55181086740077
H           2.17570256825276   -2.76079548801814   -0.14647066977424
O           1.38969885550645   -0.66909820353261    1.88293965077286
H           1.73552707158242    0.23217017867502    1.66057211878455
H           0.42511582466169   -0.56894962006509    1.89589194103181
N           2.10068651597884    1.71913747578491    0.88029520424297
H           1.72079639720442    1.46004244211102   -0.02748414453167
H           3.07317241103501    1.96459291189767    0.74517138459397
H           1.60925563153696    2.55104010030688    1.18334808841251
