    26
        -50.45374488  Gyration_radius:  2.44979677839 Dipole_moment: 2.515
 S          -1.07190496409232   -0.62725004519853    1.33233753785806
O          -0.29739076471436   -1.62127442736963    0.62967452657622
O          -0.84414074257112   -0.56336610271559    2.73855799241228
O          -0.77640583829395    0.75218093973271    0.67919734884292
O          -2.55935021459112   -0.79379176639366    1.04617165288653
H          -2.66326874115923   -0.79560121367669    0.03028672827623
H           0.23397055378967    0.85301769790451    0.51023838680520
O           1.71549664809120    0.92486199875895    0.25043960142073
H           1.99346829135533    0.48008318486118    1.10421400088636
H           1.82821819332719    0.25221575237676   -0.44225095298598
O          -0.00122313693951    2.71081171154921   -1.24048207216716
H          -0.63553953757306    2.61778710005859   -0.52373995475729
H           0.85576737796536    2.48048480041531   -0.86288598280494
O          -2.75642739957878   -0.67759051520962   -1.47417521221163
H          -1.94260924858161   -0.28332715828196   -1.90625582521714
H          -3.49087002398016   -0.11487767158889   -1.72822587511366
O           1.28462109178698   -1.20249621193764   -1.40235670032808
H           1.56357113335425   -2.02622439125113   -1.80451983129401
H           0.67398310967171   -1.44487756742464   -0.66523231405121
O          -0.64770781826771    0.39816233429718   -2.56301668673896
H           0.10389041266019   -0.15874163903475   -2.30064098603953
H          -0.45381114980421    1.29161493987356   -2.21830399739820
N           2.01646702263010   -0.44820770151791    2.48185988685274
H           2.52119436757983   -0.10681860351339    3.29088149036349
H           2.32162371994576   -1.39808248596817    2.30758151411725
H           1.02837767796899   -0.49869295876932    2.73064572378339
