    26
        -50.44546750  Gyration_radius:  2.48022022401 Dipole_moment: 4.844
 S          -0.10747946579295   -0.13566519807646   -2.14719642114207
O          -1.44656084993764   -0.15908922310327   -1.61629063131833
O           0.20966193634909    0.99451964366662   -2.95540240098345
O           0.89650442321830   -0.19923678936980   -0.95175384357520
O           0.19302985508437   -1.45393063553049   -2.85831670724539
H           0.07501032169240   -2.15191951363700   -2.12400363163693
H           1.02245789478603    0.75657018582059   -0.66253632897013
O          -0.16086080000232   -1.70374709382113    1.38213562524244
H           0.58486123027325   -1.07914799745530    1.49729824567388
H          -0.95273462698628   -1.14807140367696    1.32748180448379
O          -1.19218013616376    2.54699673172581    1.08744592391621
H          -1.63439876179883    1.67550299308420    1.01242517483748
H          -0.99360103685073    2.66945111054781    2.01730251424817
O          -2.24373912827540    0.07288100677783    0.83198407939886
H          -3.18609766247826   -0.10443455661868    0.83968118987572
H          -1.96045263896535   -0.03228365047040   -0.11084895425311
O           0.92087685808992    2.30878774427849   -0.52396767621247
H           0.68312114161757    2.45103587591805   -1.44852357995149
H           0.11770098523325    2.50632817461509    0.01438931004931
O          -0.00060530804457   -3.03446148273663   -0.87906935373936
H           0.81690015493939   -3.52942338600900   -0.79253450260880
H          -0.09260690444723   -2.51470169335978   -0.02867745646859
N           1.89017731038691    0.15562879808075    1.78710521054057
H           2.55309110684959   -0.18806116119542    1.10332155368844
H           2.35781310410500    0.19545678777005    2.68441714094798
H           1.65011097711771    1.10101473276701    1.51413373520024
