    26
        -50.45521617  Gyration_radius:  2.43501628125 Dipole_moment: 2.502
 S           0.63392116192445   -1.49364677282422    0.91371229448465
O           0.20502398324141   -1.69021374470260   -0.45414612225475
O           1.99373847463853   -1.81974520118514    1.18366407203886
O           0.34074143712118   -0.03099464905421    1.30077310709268
O          -0.30156479044902   -2.25997753418219    1.86206764463963
H          -1.21469002204106   -2.12218545069909    1.47095843948021
H           0.72018735264416    0.65797816135906    0.57041709814507
O          -2.35498541219368   -1.76592180839457    0.40698863830344
H          -2.55709062814141   -0.81582478734038    0.30049277044697
H          -1.74962273583571   -1.97896764951570   -0.31652311598017
O          -1.03042558802639    2.40320378640336    1.28105870005182
H          -0.30453421288406    2.64994399399838    0.69538552482055
H          -0.67137500941172    1.71763391360591    1.85571860822068
O          -2.65197917938805    0.88950678619408   -0.19407284134343
H          -2.10442739374294    1.48395806780618    0.37533844438597
H          -3.51333901645648    1.30227893857996   -0.27228636049635
O           1.15296802040308    1.53546158903091   -0.44394602529261
H           2.01390513717227    1.07223107910025   -0.66184559848001
H           0.52967996287852    1.26542996820660   -1.17247599054021
O          -0.59178628924786    0.37916229375757   -2.00605902996548
H          -1.43442501274473    0.56949344310883   -1.56397561315871
H          -0.29419097397176   -0.47400975774961   -1.64295693118395
N           3.14388378350113   -0.13644882576400   -0.86050836845165
H           3.01584690188865   -0.62121824218913   -1.74060825851348
H           2.89496916882670   -0.79278169392183   -0.12059312793602
H           4.12957088029642    0.07565409637015   -0.76657796851434
