    26
        -50.45521619  Gyration_radius:  2.43466766249 Dipole_moment: 2.555
 S          -0.45108743199328   -0.94340470383811    1.53910708140838
O           0.91174411576451   -1.05616029557906    1.06571496939855
O          -0.60175274341789   -0.42367378835757    2.85661203099868
O          -1.23873303390103   -0.09019838232900    0.52683275732639
O          -1.15371704478932   -2.30471794094029    1.41469454914954
H          -0.82596037020201   -2.67275729654373    0.54168630416610
H          -0.72545611002437    0.82804799131445    0.29273733900179
O          -1.92734497552341    0.90405220687979   -1.98473061714010
H          -1.43869284429343    1.67670612645547   -1.67750022234925
H          -2.25639542851509    0.47727146070891   -1.18502335676462
O           1.80482687380740    0.36976250413422   -1.05469453074358
H           1.32048999535223   -0.09761430600249   -1.75376533543928
H           1.70186265038205   -0.17768826067919   -0.25594094238242
O          -0.09019293329664   -0.90209169368451   -2.66047801230040
H          -0.80352068468074   -0.24456289961681   -2.47014673267803
H          -0.14176776184096   -1.09939689352175   -3.59685239375607
O           0.00277372775419    1.97356033245934   -0.05653475850048
H           0.76847458065643    1.54585826654584   -0.52935426922879
H           0.35673470178445    2.18997969269712    0.85579790245026
O           0.08602649101023   -2.86687592024809   -0.75984809397208
H          -0.08080853307468   -2.24760269456127   -1.49697040752063
H           0.84254893906382   -2.49709015580703   -0.28408346295143
N           0.90595800236801    1.99716896787259    2.41486715911290
H           0.37550183072055    1.18690656680078    2.73485235005198
H           0.77423556258033    2.73939078908366    3.09103381469545
H           1.88425241431353    1.73513032677087    2.43198687796093
