    26
        -50.44952816  Gyration_radius:  2.52276549288 Dipole_moment: 5.482
 S           1.68204658014296    1.87004770645687   -0.33634018771715
O           2.36522510074637    0.68186157931285    0.13571877415620
O           2.43281456880745    2.73924682453669   -1.16135308038125
O           0.39234205300496    1.37467063016479   -1.06475187774561
O           1.09385241848958    2.64291534441677    0.84866447011264
H           0.50524968439792    2.03649854583610    1.42776093666884
H           0.71554463868292    0.52291918722538   -1.59704755146445
O           1.17723533998542   -1.04849492010075    1.65889516167110
H           1.79807741241593   -1.38041924043448    2.30937503577622
H           1.68838456801454   -0.42447895624445    1.08213594215444
O          -0.43349301179782    1.06318725778332    2.12643730777026
H           0.02450934743345    0.20004727018658    2.08586873528758
H          -1.18738024792526    1.01087101219286    1.50959290186852
O           1.32805347997883   -0.66764284628032   -2.10653762647310
H           0.88495573932950   -1.41995523282876   -1.59398782791364
H           2.21406851380341   -0.58723728831497   -1.73778563435486
O          -2.10709307757413    1.23260217830035   -0.02618921946077
H          -1.27332014670510    1.30540582103815   -0.52820478592118
H          -2.54273590040526    2.08405045818337   -0.09745223299459
O           0.20749279048481   -2.40668520098934   -0.56134083633490
H          -0.76312097792317   -2.22723689992991   -0.58019197283020
H           0.51379891727578   -2.08879571234962    0.30273925104720
N          -2.42171404832627   -1.72044373212777   -0.52123216570072
H          -2.85599729935163   -1.88056000658386   -1.42129011551252
H          -2.45775680943419   -0.72314263356463   -0.33360311308040
H          -2.98103962355676   -2.18923114587559    0.18011971137146
