    26
        -50.44952808  Gyration_radius:  2.5227614854 Dipole_moment: 5.481
 S          -2.04086307494226    1.09853885766288    1.03394234668698
O          -2.16468751591424   -0.34257219527133    1.12966798568144
O          -2.67161518252656    1.85135194122580    2.05137684360482
O          -0.51049980825705    1.40451330203019    0.97207401843175
O          -2.51040134814453    1.57527173236463   -0.34439463288102
H          -2.02267669204096    1.07378940615168   -1.09279591622845
H          -0.09136851804498    0.73348552455026    1.67025514918577
O           0.27165279065092   -0.34480842429587    2.54060458700490
H          -0.59157607908047   -0.73346504615975    2.71734601395993
H           0.75174221261648   -1.00410254040421    1.94072721030201
O           0.96865344079913    1.85838300442798   -1.25335569410694
H           0.90009102527349    2.77909080071535   -1.51307472148875
H           0.53111581193033    1.78265175699265   -0.38424400307125
O          -1.08567007138350   -1.91373882572562   -0.62864334703303
H          -1.52448997617062   -1.36838894402124    0.07386055052278
H          -1.66988337831256   -2.65517282962458   -0.79514872415297
O          -1.14321575574835    0.34580987844524   -2.09960913330616
H          -1.03617869106944   -0.55478540279710   -1.73376590339742
H          -0.28297194933572    0.79454834718504   -1.99866056016155
O           1.29415834819432   -1.95715201421436    0.80224260936974
H           0.52582918618346   -2.09530638833846    0.22591247937917
H           1.93659409273930   -1.43406323228614    0.26526555108832
N           2.89432072940964   -0.39966595762687   -0.74652284885012
H           2.34141866471771    0.40957015447007   -1.01216770208050
H           3.23382220846398   -0.83622882374998   -1.59429650585999
H           3.69669951999999   -0.06755408170803   -0.22659562259664
