    26
        -50.44870261  Gyration_radius:  2.48806512175 Dipole_moment: 4.006
 S          -0.66714793369998   -1.51465494718427   -1.06649911056849
O          -1.52520528395653   -1.03433208908617    0.00234436149658
O          -1.33309950414031   -2.12393471184372   -2.15833661064210
O           0.15596976543705   -0.26968922868491   -1.56850197897004
O           0.40722869424149   -2.41633568707157   -0.50021289558332
H           1.01708697218266   -1.83694883088311    0.15832605739323
H          -0.27152604096215    0.57329308375948   -1.26023297778598
O          -0.91961469242807    1.97841578388391   -0.79221807928832
H          -1.79455212030246    1.73723117893181   -0.37224952171553
H          -1.12156498776075    2.54672472992619   -1.53748265177967
O          -1.52820104431310   -0.07723622660055    2.49692933602190
H          -1.30978087883987   -0.73143255388629    3.16208483604571
H          -1.52891165668326   -0.54637641191661    1.63843605541896
O          -3.11825406125721    1.09918416846219    0.30664063806202
H          -3.03983179909526    1.15258456058631    1.26542370610563
H          -2.84118563971317    0.19186637166964    0.08513824526593
O           1.86762511994696   -0.99591762916021    0.90301914865988
H           1.42586155476873   -0.14969357367152    1.16747436176929
H           2.51731909184959   -0.73657047637700    0.20340442226071
O           0.61243721971901    1.27165131728306    1.48699415094022
H           0.24265479594556    1.69822590075346    0.70475340347543
H          -0.15108344355464    0.94568968342048    1.99932382172586
N           3.18826899102549   -0.25143653113551   -1.32220092280752
H           3.67739003434133    0.62987167543745   -1.41064623237561
H           2.30096122341160   -0.17447962954565   -1.80888987965222
H           3.73715563378441   -0.96569990710693   -1.78282165348155
