    26
        -50.46065067  Gyration_radius:  2.56696125532 Dipole_moment: 6.096
 S           1.22439693133016    0.65073497079733    0.88781095304947
O           0.14918905960363    1.59220197565213    0.48946580793307
O           1.12378474185907    0.29114029122092    2.27349620955902
O           1.20215239746771   -0.49391563368890   -0.02116721131055
O           2.56310694649593    1.41230417607175    0.67246734683886
H           2.71535926765570    1.33246007897110   -0.30108033667782
H           0.05057703956421   -1.55144854677798   -0.70427690728230
O           0.25226011736026    2.58762551093251   -1.93907923134046
H           0.52256512543682    3.50555961903264   -1.98832752675436
H           0.27026938717481    2.34521914730309   -0.98288918317189
O          -2.06775408784759   -2.54949291902974    1.16441252932005
H          -1.39887538973942   -2.25836615745144    1.83018513673460
H          -2.17295492950926   -3.49249164883206    1.30153527794506
O          -0.81628503687420   -1.84076921894345   -1.06126815285648
H          -1.30001718052940   -2.21379392615741   -0.28464396740954
H          -1.38599068007439   -0.49724467188437   -1.15801559617446
O          -0.21443953191333   -1.86301389117950    2.93169178965451
H          -0.45827750690715   -1.64801820609821    3.83387155568966
H           0.34685088397929   -1.11089154794238    2.63235096547195
O           2.44663261690427    0.91047290849646   -1.88262294636878
H           2.02536046487699    0.12589535779020   -1.48938378399435
H           1.71950214071820    1.47972059836928   -2.18806034166301
N          -1.67073800528641    0.56797508319755   -1.04849238169497
H          -1.48576422669041    1.09027264421499   -1.90394729518223
H          -1.00367141399103    0.95916885225122   -0.30622096566017
H          -2.63723914105075    0.66869512368296   -0.75781175462767
