    26
        -50.44974706  Gyration_radius:  2.5509026464 Dipole_moment: 4.129
 S           1.29377923985174    1.05434277641080   -1.66511485983206
O           0.45727758690480   -0.08561403975684   -1.32918131450800
O           1.04610731307913    1.63151384421529   -2.93308972852052
O           1.14777706076739    2.08205917367363   -0.51041674918415
O           2.76585407243750    0.65383019412886   -1.52462242205307
H           2.93548269894706    0.47277389185434   -0.54318595459567
H           0.16389999682676    2.33196229200329   -0.43149065358616
O           0.51827754475633   -0.58200280696780    1.26191595869733
H           0.21352514933944   -1.51752874067988    1.33756841748694
H           0.48809382059114   -0.40894251115307    0.29661245239926
O          -1.99977278091278    0.46864553295984    1.11930013575745
H          -2.23288702446290   -0.15068491531317    0.40403940608435
H          -1.12659429026957    0.16114247904563    1.43016655838670
O          -2.02782002278706   -1.11732091324475   -1.13395051243165
H          -1.12217351162246   -0.79620006359919   -1.30632593177917
H          -2.55344982585288   -0.82838078720264   -1.88182417157744
O          -1.31978009993987    2.57510349129428   -0.23798279538368
H          -1.48915041041886    3.35646257344762    0.29227241112399
H          -1.64999626283541    1.79119856850745    0.29816405964462
O           2.97969329065407    0.36198758555269    1.01367364490287
H           2.89772579037876    1.27496355500769    1.30120056795623
H           2.13230517132107   -0.07803417690931    1.26637087566895
N          -0.71644927135049   -2.96704520599177    0.96871535657953
H          -1.30741402691745   -2.61347899644542    0.22187839766407
H          -1.32070155169993   -3.33633674641072    1.69201419865362
H          -0.17360966681600   -3.73441607453759    0.59329265242184
