    26
        -50.45002650  Gyration_radius:  2.51470032343 Dipole_moment: 6.070
 S          -1.51943159737350    0.31044147380901   -2.05593327990736
O          -2.05660854971497    0.86180164168135   -0.83401362236423
O          -1.96621951968683    0.88259909825192   -3.27118629404923
O           0.03229117895677    0.34085866116636   -1.95729423868531
O          -1.79223340936314   -1.21384902222598   -2.06857317649130
H          -1.48698785492936   -1.53160795042955   -1.17696994712321
H           0.38622818528106    1.05185814877348   -1.30421069657665
O           2.17535239264472    0.26515287554456    1.48140675845322
H           2.68206439642902    0.63527176215845    2.20520878904399
H           1.28594394223405    0.02311245931143    1.85795658328790
O          -0.28288721401990   -0.23032281533493    2.27541815690217
H          -0.62235511264011   -0.84983649679232    1.60940398852867
H          -0.71825632995277    0.61807005913672    2.09282346810439
O          -1.28762486068235    2.14983232903153    1.28021758519840
H          -1.90461709510209    2.85093996199165    1.49360133291729
H          -1.67099150357880    1.67043345545650    0.50749410070938
O           0.96954266490048    1.96181831822950   -0.25423585793640
H           0.22283695645018    2.21544925618032    0.31848869737471
H           1.53500780182799    1.38261562672463    0.30046802134746
O          -0.78451921673240   -2.01763449824753    0.18823781146984
H           0.19248594664244   -1.96024043621864   -0.10393427327374
H          -0.97301243920244   -2.94282535798822    0.35586000344884
N           1.66845004221639   -1.72346832281159   -0.63657780002654
H           2.14139141534843   -1.14957070432405    0.05574839991572
H           1.48096328580445   -1.13365590558636   -1.44106169446813
H           2.29318650429322   -2.46724362747490   -0.91834282585152
