    26
        -50.45022569  Gyration_radius:  2.53394976844 Dipole_moment: 2.300
 S           0.68208497016299   -0.72589061381030    1.44813768810237
O          -0.64836095178521   -0.32352962006501    1.85100636395654
O           0.84569497046872   -2.10687365038008    1.14512782814019
O           1.09491377919272    0.12936775842151    0.23258811952762
O           1.69706946972932   -0.29178791186973    2.51239972542489
H           1.41416102294878    0.65527304967827    2.71511493146071
H           0.28916324300849    0.48822006901596   -0.32097656176268
O           0.62574821554244    3.03254709472481    0.22691465874012
H           1.48451147037240    2.77907969031311   -0.11853256764386
H          -0.02576650168542    2.57440524719408   -0.32363367943015
O          -0.82873187516387    1.02177595506938   -1.11544970977284
H          -0.73718007480897    0.45695973866069   -1.93249928205396
H          -1.63527227500994    0.67321652940021   -0.67343223532938
O          -2.74405241245466   -0.24668001632356    0.23297082063132
H          -3.48815290412738    0.12941882666498    0.70642943300535
H          -2.05510380023024   -0.43178179542021    0.90325425507029
O           0.52969853089856    1.96287442688669    2.71497408119464
H          -0.28806789419652    1.45395425621209    2.63657019091621
H           0.60245814553658    2.48106946317825    1.88302013737953
O          -0.64684753702175   -0.81429083251606   -2.95620668999572
H           0.04211921363302   -1.40714150606642   -2.54459878710298
H          -1.47093562969518   -1.30410130032701   -2.92506690794050
N           1.12133249299506   -2.40137105162672   -1.72080638533162
H           2.05835059113168   -2.05742926097185   -1.89361240122167
H           1.11002486008037   -3.38342198932309   -1.97005288319047
H           0.97114088045403   -2.34386255672243   -0.71364014276946
