    26
        -50.44694867  Gyration_radius:  2.54372479199 Dipole_moment: 3.767
 S          -0.38216365142549    1.70781118290369   -1.46457742798171
O           0.76968680633484    0.84039233899631   -1.32511074108561
O          -1.15440574650448    1.51494603671903   -2.63730751804880
O          -1.25073181965881    1.55744094590470   -0.18981188679497
O           0.08525193245576    3.16461407480760   -1.33939734060866
H           0.64998997924560    3.19662592381205   -0.51417793787530
H          -1.73363971910827    0.66960560784329   -0.16748087530627
O          -2.41463954567688   -0.70372633916654    0.06967043549138
H          -3.31298338436102   -0.54386907323621    0.36567569117787
H          -1.88560129743860   -0.95406942186616    0.88879721340419
O          -0.88970675092295   -1.14501162536366    2.11682632292190
H          -0.26318729669011   -1.83766844683984    1.83175866964953
H          -0.35556868978336   -0.33540845165548    2.08053716583584
O           1.27747494070845    0.34058700129059    1.21995128455391
H           1.66242735332637   -0.54012478538150    1.30621577094408
H           1.08232607677626    0.43531712025081    0.26447267633581
O           1.64478700789734    3.00791775863065    0.73170902249968
H           2.53757754149912    2.98944238727258    0.37826796670560
H           1.49204869206462    2.12991467619635    1.12774586069302
O           1.10696277256616   -2.53551111732516    0.90288980324791
H           0.71839500036226   -2.34626880051882    0.00169042519431
H           1.34180506183137   -3.46358100160567    0.90964887144563
N          -0.05177037103946   -1.92016815422158   -1.42575149316996
H           0.04250616951710   -2.44479710315815   -2.28648989158905
H           0.32644931948041   -0.98967599094056   -1.59449544080541
H          -1.04329038146029   -1.79473475334876   -1.25125660683972
