    26
        -50.45096696  Gyration_radius:  2.52369026037 Dipole_moment: 4.940
 S           1.30436456230614   -1.86587388613074   -0.45982836409550
O           0.97702236003866   -0.94303334202105    0.60788717979932
O           1.68449393306671   -3.17047962452513   -0.06802891221000
O           0.08832313562343   -1.96281742354054   -1.40595004298029
O           2.41601005895343   -1.21597079720567   -1.32112224874021
H           2.23273064899310   -0.23712279072147   -1.39161559255818
H          -0.24566534636279   -1.02463744162702   -1.64182691229695
O          -2.34876223139006    0.61857203376997    0.26246452528663
H          -3.26365732428608    0.61934653512486   -0.02238259239794
H          -2.14850059292862   -0.30461586242148    0.60450101908097
O          -0.81675965555825    2.47344835791037    1.59055176397575
H          -1.38882467439838    1.85774131681418    1.09934268056857
H          -1.07073858720078    2.40742267107245    2.51235065038221
O          -0.66627142252099    0.41402131965016   -1.85499223966694
H           0.14534257104798    0.93624969599779   -1.75464546215770
H          -1.24477562445780    0.61786885216500   -1.09026382293989
O           1.70856127711820    1.58919668625058    1.12502918006070
H           1.52330408704588    0.63620579541429    1.19776794433560
H           0.85643603885984    2.03171993891176    1.31710973375727
O           1.88685892990051    1.33390986573134   -1.41142623919275
H           2.60571177970963    1.85025108179793   -1.77952986107710
H           1.86117271133539    1.53437024191134   -0.41545290408775
N          -1.67996720642638   -1.81942793545435    1.03630011836895
H          -0.68427793572835   -1.60821890539115    1.09395815398015
H          -1.78328623653649   -2.48165531857481    0.27635713455736
H          -1.94884528619990   -2.28647107493440    1.89344512021385
