    26
        -50.45848061  Gyration_radius:  2.48477702249 Dipole_moment: 5.072
 S           0.22098609878086    0.78719461286550    0.77163693113583
O           0.09937058132942    1.23066645093435   -0.61657067405188
O          -1.01352328190335    0.16897965562987    1.22430949260829
O           1.35559234974811   -0.14685851816755    0.89422156970881
O           0.50464397514897    1.99912229801061    1.66843157272846
H           1.49788773135683    2.14607416193394    1.58456304714400
H           1.05991372660788   -1.44149512655993    0.28219997652122
O          -0.63352134101860   -0.94835563255515   -1.86703913964221
H          -0.32134497417942   -0.06163597865192   -1.56443001684344
H          -1.58998845307293   -0.95030034991629   -1.60628861111699
O           0.61582437847142   -2.26497648804546   -0.18137640911377
H           0.08134917941388   -1.79576818681569   -1.00609060596158
H          -0.09894149529062   -2.53709690875498    0.49114024721366
O           3.01426633893265    1.96627776520622    1.20779678069577
H           3.01927968273058    2.25665001413720    0.27310850086502
H           2.91095419942719    1.00435161843733    1.18074993046654
O           2.39671170825221    2.31570846096922   -1.38185023119822
H           1.49256515800840    2.00018309771637   -1.17465845961125
H           2.67157577937695    1.85001461958309   -2.17325793402374
O          -1.27015038221660   -2.41593681616211    1.52853940977642
H          -2.15710539903644   -2.60945269743575    1.21873943210654
H          -1.20646268932239   -1.43260391629579    1.59959442081901
N          -3.00752903113493   -0.45105601174511   -0.74672616629418
H          -2.47608719256475   -0.08405028580426    0.04467946923719
H          -3.82009683265323   -0.93519737367416   -0.38467302468840
H          -3.34616981481842    0.34956154537771   -1.26674953839820
