    26
        -50.45022578  Gyration_radius:  2.53468604999 Dipole_moment: 2.294
 S          -0.11659848931280    1.04536201914568   -1.40758534031246
O           0.48984682854554    1.88139016322855   -0.39384194189485
O           0.77547008769988    0.49494265891758   -2.37056618368136
O          -0.88573139505031   -0.08798932070772   -0.69804159765867
O          -1.24266997024932    1.81646024364992   -2.10664615838757
H          -1.73337375483795    2.24137605226411   -1.33427754086319
H          -0.51860729977146   -0.31492600231724    0.24951259629630
O          -2.60472784273901    0.50793108391056    1.61513214988413
H          -2.99623143527960   -0.11108497233312    0.99497502158590
H          -1.76914165042789    0.10723822189221    1.89561650915502
O          -0.03162254760114   -0.64855701762040    1.59779152144182
H           0.39023152202166   -1.53253280202710    1.40927403351445
H           0.73198941509955   -0.04576671065003    1.74249596052987
O          -2.03637873388045    2.71064698342256    0.14251832545695
H          -2.36814303393293    1.98752225496990    0.71960238252407
H          -1.09569829886687    2.79797812883246    0.34608696234304
O           1.33669143458410   -2.71900219906374    0.80161403274856
H           1.23357966705408   -2.62929613355351   -0.18673457717394
H           2.25507709491882   -2.51785689951882    0.99172484490509
O           2.06364885319471    0.99559329403605    1.54419737052313
H           2.26537682833453    1.72207741551985    2.13646399227677
H           1.64589027017791    1.39202905103479    0.75277590719191
N           1.10023128963881   -2.33061966155910   -1.83747210707611
H           1.05422533398946   -1.32854340495555   -2.02194971746859
H           0.22338020418744   -2.72424831443346   -2.15751694805480
H           1.83328563247228   -2.71012413207189   -2.42514949778684
