    26
        -50.45311924  Gyration_radius:  2.41525770214 Dipole_moment: 4.217
 S           0.37968338726032    0.66955585284338    1.60964641913223
O           0.39223128701467    1.16717716542796    0.25209592611705
O           0.08916268161491    1.64657093872821    2.60554175731942
O          -0.61898202766893   -0.50857204098490    1.67921983840570
O           1.70909290534810   -0.01876975557130    1.91732685598290
H           1.91868340154832   -0.66344478878404    1.15982141450111
H          -1.54157110713062   -0.21818801774425    1.28122835379893
O           2.12816096556912   -1.72256535950712    0.06310368957758
H           2.61500080139990   -2.46000311955900    0.43770951996162
H           1.20750592507376   -2.06716144855624   -0.14331569775122
O          -2.71264565490629    0.28966204433142    0.56334622462272
H          -2.60237984358580    1.26062559668755    0.70738599793542
H          -2.50489178319691    0.12029684146850   -0.36826090022021
O          -0.99792234504874   -0.20192283784008   -1.56720391988680
H          -0.50023198980537    0.34399188212787   -0.92427107961014
H          -0.40717014434285   -0.20783809552239   -2.33683070799801
O          -1.80634077731745    2.73906719339880    1.01712299083650
H          -1.19286565993961    2.89641140573994    0.29340751998693
H          -1.24258783445226    2.55616655022058    1.78760762457855
O          -0.33001152754046   -2.47787911036398   -0.31645353705711
H          -0.70287765822344   -2.30073943942604    0.55366216967184
H          -0.67227270324360   -1.75745656198107   -0.89446549138869
N           1.59319827681753    0.16518174330987   -2.44970514206531
H           2.05019058077077   -0.63860484937061   -2.03297075173487
H           1.54464769941000    0.86941030687749   -1.71954532722080
H           2.20519313458850    0.51902789408206   -3.17520374749988
