    26
        -50.44547053  Gyration_radius:  2.4682041166 Dipole_moment: 5.736
 S          -1.57621165725075    1.40531519997487   -0.77586206840439
O          -1.60372969916900    1.37558362879390    0.66922285434821
O          -1.34502461565745    2.67303493854108   -1.37167765152160
O          -0.48736788361429    0.40127401664811   -1.25797845038862
O          -2.84905437711813    0.73530093788354   -1.32099927868958
H          -2.90057506342907   -0.11541837761427   -0.79201842248403
H           0.41333072624157    0.85938014478277   -1.15568626545711
O           0.89682580059367    1.78460189774556    1.62605736595446
H           1.02427402967900    0.90274124866192    2.03081167195638
H          -0.05556507785033    1.82592150538806    1.43135353472381
O          -2.49433362463015   -1.13977717148659    0.40101674154464
H          -2.25592936279471   -0.36385300901830    0.93094160101611
H          -1.64994476061946   -1.59927690928757    0.23276980342900
O           0.69757955150532   -0.77612745419166    2.51505847847094
H           0.47121564188241   -1.30253785961174    1.72495105148293
H          -0.08169422599572   -0.77253073591628    3.07354868377358
O           1.64042227080503    1.72878921768565   -0.83910513367487
H           1.50112508660173    1.79493691865105    0.15702342434998
H           1.39702809102807    2.58850512330633   -1.19252262538538
O           0.03683750427386   -2.22131258107048    0.28254825688408
H           0.17902247623674   -3.16937295413107    0.29405392793488
H           0.69150430950086   -1.84219568162155   -0.36828073991965
N           1.92416737252468   -1.32217033429322   -1.39492862731389
H           2.74004938480889   -1.88669180475009   -1.59813406450607
H           2.24393359661280   -0.42911213227623   -1.03662006498829
H           1.44211449583775   -1.13500777280515   -2.26554401313712
