    26
        -50.44552971  Gyration_radius:  2.4971357677 Dipole_moment: 5.171
 S          -0.97416601851079    1.48295587887039   -1.69908722024863
O          -1.11719850726110    0.05923235805957   -1.90030233007546
O          -1.91901446316303    2.32362776419185   -2.33365207677703
O          -0.99039824453961    1.69952952765298   -0.14620571050137
O           0.45173262905070    1.92501620346087   -2.06948912988698
H           1.08837352676051    1.34234530603873   -1.55287673560650
H          -1.40096647031157    0.84631582598286    0.22781873688548
O          -0.75586392180283    1.59710296272766    2.61244410399196
H          -1.45878455059468    0.93996908654670    2.59292629857888
H          -0.86661503225402    2.12501323661730    1.81180109237436
O          -1.98518491941985   -0.48212041975409    0.68672627783199
H          -2.24969584619097   -0.76944836681879   -0.19376419669947
H          -1.22523180739595   -1.07901820508967    0.93947640757617
O           0.16358274024158   -1.91517650175444    1.14718657413793
H           0.48890497499230   -2.08099835328866    0.24488556529417
H           0.76536711167593   -1.27056792559294    1.55187157204831
O           1.50478187433521    0.33240453584778    2.01154928386574
H           0.69525421967603    0.83013697829647    2.28511813482286
H           2.19730083394860    0.57523860173984    2.62738280819640
O           1.91225579488639    0.33102643901128   -0.68592133890634
H           1.79231899209057    0.43056609904715    0.27798195698514
H           1.60602949558945   -0.55901666311139   -0.91543889593625
N           0.68820604611636   -2.11469522079856   -1.62159561804088
H           0.23688542855636   -3.02305966922386   -1.65076326534805
H           1.37627187371655   -2.11981459870261   -2.36730414423061
H          -0.02414577019018   -1.42656486996472   -1.88076815033706
