    26
        -50.46862040  Gyration_radius:  2.50761950002 Dipole_moment: 3.954
 S          -0.49329552245006    0.55654748160905    0.83912662627310
O           0.84233632231718    0.06922640719415    0.43329119640747
O          -0.63617694481538    1.96365312324444    0.53474395177872
O          -1.53119940847197   -0.24962577531330    0.20314371966891
O          -0.59600855079902    0.38679323119448    2.36731867098195
H          -0.43253242096287   -0.58568130513971    2.55749860114775
H          -1.75153413377898    0.50891710698636   -1.24555887409440
O          -1.09601899119188   -2.87343541519261    0.42298514048593
H          -0.25023251120351   -2.92977388009442   -0.05911400746522
H          -1.42902145577707   -1.97366421968888    0.23673370763098
O          -1.65643334991850    1.10607313388492   -2.02514230271964
H          -1.90114594533826    1.97365611577173   -1.69087870257847
H          -0.06348992535490    1.08447600768953   -2.17367159017082
O           1.10492414818327    3.46515181370592   -0.74745105549160
H           0.40050158836119    3.03136802734079   -0.20985033225383
H           1.75829403013216    3.77457368063938   -0.11840123575521
O           1.47109602863937   -2.39159128970938   -0.37825051439163
H           1.27585889104611   -1.49027657749996   -0.04869241515030
H           2.02301443745927   -2.79815749338503    0.29232012223558
O          -0.29461593258997   -2.13759559553188    2.78181811914139
H          -0.94142758018588   -2.40983513659458    3.43565786097636
H          -0.60059418906795   -2.52926244736022    1.90951365382693
N           0.97400713340902    1.09912459542818   -1.93639359366232
H           1.23306844085504    2.08959242462714   -1.72371444670082
H           1.54841975578199    0.67298125607794   -2.65538126106240
H           1.04220607569826    0.58676472012895   -1.00165104912199
