    26
        -50.47096510  Gyration_radius:  2.40543532924 Dipole_moment: 5.277
 S           0.07151567872023    1.38983091809292    0.15538330770261
O           0.55703015776987    0.30218618411221    1.00914829911237
O           1.09700574152310    1.82236891269977   -0.77713142898530
O          -1.14755188438195    0.98136391444630   -0.54841497755661
O          -0.27760001358866    2.58313596020086    1.07388697633966
H          -0.86323093668381    2.18222820159344    1.77133811098707
H          -0.63466577149736    0.52441866212086   -2.04111286724994
O           2.89975021402015    0.00213512092242   -0.34107366634301
H           2.37452366182734    0.80420934828045   -0.58770685014748
H           2.66725406744297   -0.11386189356818    0.58733293937973
O          -1.92158918158146    1.42140426389095    2.72485526433834
H          -2.71388749214915    1.95740590871903    2.80352787621382
H          -2.18980071885001    0.61547905681029    2.21582032426219
O          -2.58467805152657   -0.52592614727076    1.05600016097092
H          -2.06254481965589   -1.33593674529775    1.03741405642070
H          -2.19001958931739    0.03394610985927    0.35296175912441
O          -0.02165678312559    0.28897364191111   -2.77907375677751
H           0.71112468550522   -0.94990226065489   -2.16385141971511
H           0.61044838025583    1.01760627666593   -2.76174917676357
O          -0.18630597781637   -2.10862519986812    0.64613453578568
H           0.14418663369222   -2.60115406764983    1.39949432843956
H           0.03660634276356   -1.14774832718806    0.83314051474022
N           1.27370884426186   -1.65225395231152   -1.57982824681143
H           0.65808129915686   -2.01501842442284   -0.81677834548285
H           2.04767038671895   -1.07526566387648   -1.11534690955076
H           1.64462511648970   -2.40099979820750   -2.15437082844305
