    26
        -50.46135639  Gyration_radius:  2.48805174167 Dipole_moment: 3.162
 S          -0.06476134951992   -0.11784034493848   -1.02211926586723
O          -0.72381606496455   -0.99880720314302   -0.06477489564609
O          -0.81287777764291    1.12439183738038   -1.17482998971193
O           1.31721762682724    0.16161160496773   -0.58779918784458
O          -0.00165266167098   -0.80351558784167   -2.39005031286819
H           0.82723703842412   -1.38657827415262   -2.33259118918250
H           1.35914309451661    1.02190293364926    0.57130182816115
O          -0.13398904271055    3.38190528139598    0.04297586865231
H          -0.31528235041819    2.69701884277354   -0.63625815926409
H          -0.98798251795951    3.55737236468765    0.45320772587067
O          -0.87038853699006    0.39288515556217    2.13835990552366
H          -0.84235359944152   -0.28371337957356    1.41798236292895
H          -1.60733590811342    0.98208345133358    1.87463996190620
O          -2.57123659497656    1.85676992046604    0.66200069562150
H          -2.02886463863464    1.54089935258137   -0.09604955678495
H          -3.46445977080141    1.55277674958511    0.49645396146615
O           1.15117568728120    1.65000333607501    1.38904076264964
H           0.34003771072685    1.14269996662232    1.85841599447643
H           0.73598306010854    2.48041722270783    0.94452646794966
O           2.11808205972798   -2.09479685772340   -1.87673188298859
H           1.75479810951174   -2.73390150225891   -1.20683176035387
H           2.40749644606811   -1.32645532752113   -1.36723394741509
N           0.80131283195481   -3.40258376404974    0.04107599918315
H           0.26994667031823   -4.23066117317063   -0.19599409343933
H           0.14705118047622   -2.62061513718114    0.09860235202425
H           1.19551926791318   -3.54326947827919    0.96268035493527
