    26
        -50.46044991  Gyration_radius:  2.45581576878 Dipole_moment: 6.768
 S           1.29669037220865    0.68758410406879   -0.53853684180627
O           1.21586346548667   -0.53264145119779    0.26485523170772
O           1.36843373339458    0.43140027361014   -1.94799406042001
O          -0.02922292660801    1.49285006429805   -0.22845844080491
O           2.33637387309183    1.58600749948661   -0.03100533408806
H           1.77869252487525    2.00949438365682    1.18867305045733
H          -0.79312348986375    0.88011295517964   -0.04804226964398
O          -0.06858384136186    0.02713139964431    2.44162832566984
H           0.47720190105725   -0.36157583179747    1.71419236324144
H          -0.96452120037031    0.01978531813217    2.07282430613128
O          -0.91253728374997   -0.27875772511306   -3.07324211804699
H          -0.65812891530565   -0.69393089491577   -3.89917209056562
H          -0.07181282258807    0.03046004029447   -2.66852577479841
O          -2.04693745027495    0.01803002574868    0.48631724710411
H          -2.85844469846417    0.45708142445918    0.22615589936918
H          -1.99477756618375   -0.80985877939898   -0.10455484833614
O           0.56528880124892   -2.94108469572459   -0.65208084217382
H           0.90032819136093   -2.05479856005184   -0.40355380706588
H           0.76701126756374   -3.51733086243088    0.08665842127941
O          -1.87611392242880   -1.91731715481964   -1.17117105717479
H          -1.64471258085577   -1.37179500794517   -1.95320935938804
H          -1.06651798227387   -2.43625675924851   -0.98974983705863
N           1.21170719255630    2.28158045499998    2.11569077580238
H           0.63341294117820    1.40583608165602    2.36166061837810
H           0.59213295928257    3.05142946730277    1.88141012156170
H           1.84229744701989    2.53656422014109    2.86923032067206
