    26
        -50.44940819  Gyration_radius:  2.45484356269 Dipole_moment: 5.600
 S           0.54068556677735    2.24514031297185   -0.45962461174547
O          -0.74179965428495    2.09158971582509    0.20528471986341
O           1.16385769321440    3.51022207835273   -0.34694636203110
O           1.47956455428720    1.11969119760097    0.02842237014104
O           0.35910727701282    1.83866374940551   -1.93873320085718
H          -0.60694918901278    1.52379113495687   -2.04614944692610
H           1.32047122176159    0.69468327154275    1.01022563748074
O          -1.58438720193638   -1.22888676114594   -0.73751550711270
H          -0.64566277571675   -1.31722601664087   -0.98424749900257
H          -1.60653490908918   -0.94916676639397    0.19019731384443
O          -1.57018059197531    0.14412814967582    1.69986782150005
H          -1.30573519915703    0.92694775433884    1.15320402595751
H          -2.27970171709686    0.43978107661029    2.27190771777505
O           1.03720725676071   -1.03109904163894   -1.53664426870118
H           1.29953690874348   -0.22042646809246   -1.05943773475372
H           1.03289421141908   -0.79739642903447   -2.46742205811676
O          -2.04622476773147    1.05551619934950   -1.97293258929112
H          -1.99490621251148    0.13213484472634   -1.60691840098714
H          -2.32510573706513    1.61329685480275   -1.23915824522345
O           1.06854065370578   -0.06123094513637    2.15432933387152
H           1.29155245491048   -0.98634422118445    1.83610303903768
H           0.09304381128873   -0.04185241450475    2.21647858944964
N           1.46996829886063   -2.45382838435442    1.06162783637396
H           0.73544298040132   -3.13019594448191    1.22878889245099
H           2.35624914461677   -2.89697987644321    1.26618798337790
H           1.45906592181182   -2.22095306110771    0.07310463362557
