    26
        -50.45122981  Gyration_radius:  2.47821583043 Dipole_moment: 5.263
 S          -1.05107719787781    0.34232712557577   -2.17343523543362
O          -1.61556597004301    1.10755371595169   -1.08490696114518
O          -1.27678914826387    0.82357755948743   -3.48510854125918
O           0.46718791763205    0.15689781855085   -1.90258477887454
O          -1.55834434428770   -1.11286101092990   -2.05257215103815
H          -1.58184404076736   -1.30764402488180   -1.07199527854950
H           0.88253946559713    0.86644276403317   -1.28266392847262
O          -0.57749530416004    0.13044480038187    2.13781130695213
H          -0.73208939358323    1.04359423192751    1.84993231936619
H           0.38136972225333   -0.00960398767101    2.07293428780911
O          -0.80397112551472    2.59463606023766    0.87995958567677
H          -1.19795386487205    2.08466347602243    0.13260854155003
H          -1.27703833587122    3.42669355540646    0.92018613215104
O          -1.64508953459834   -1.60145403541807    0.48450906651482
H          -1.24271073637497   -0.92130067347193    1.09703519700202
H          -2.57478140166006   -1.63789288802176    0.71655623528647
O           1.52254848188586    1.74562455070221   -0.24606894971205
H           1.84678275908217    1.08698586153074    0.40170780514252
H           0.79433601130291    2.21735229836318    0.19885248440252
O           2.06444043657488   -0.29413937610651    1.45520174393835
H           2.89587821457601   -0.53445463319241    1.86467918757162
H           1.81292062597784   -1.04306594201240    0.83280885242786
N           1.25204657851937   -2.15383533504409   -0.23949079874976
H           1.76867053223961   -2.98133343069661   -0.50864113958855
H           1.11413338983606   -1.58402522133012   -1.06975728825648
H           0.33189627239831   -2.44518323939253    0.07244229528752
