    26
        -50.44534769  Gyration_radius:  2.5318488236 Dipole_moment: 5.414
 S          -0.60392213671916    0.30004864309138   -2.10113849646849
O           0.72919244294466    0.46016333795519   -1.55397855920841
O          -0.71535997709094   -0.51847691144746   -3.24976858048596
O          -1.50819687310832   -0.23406920004098   -0.94390929050620
O          -1.21106975075645    1.67950201892015   -2.36312187239351
H          -1.17531352335854    2.26846697194704   -1.53267401357586
H          -1.28818404073700   -1.20760017279783   -0.84594642529225
O           0.97189113526972   -2.46331699207401    1.37598105134450
H           1.57300882105579   -1.80313481653043    0.93840464464074
H           1.50517636248498   -3.24916272559051    1.50796928338112
O          -1.01667837012965    3.20449286484012   -0.32762582833790
H          -0.72676935303786    4.06349299967203   -0.64112921961750
H          -0.24416491815197    2.80678826417014    0.17400245191537
O          -0.86962168446456   -2.68019080948370   -0.52290166788955
H          -1.59198860150978   -3.21859455683144   -0.19339410910661
H          -0.18553023179586   -2.63793703152163    0.19139281667903
O           0.96999974516965    1.89084160053325    0.69990965278946
H           0.47452616908445    1.28928407582547    1.30882698329366
H           1.00504208617522    1.40902541209823   -0.14873601611681
O           2.49074796366392   -0.70448493736831    0.13907355863576
H           1.96637602139133   -0.44022816450660   -0.63793072456061
H           2.61417454750786    0.10520760908477    0.64517008797812
N          -0.60504961723500    0.11040977132057    1.97403591078534
H          -0.17312581878685   -0.80051809184295    2.07927586642071
H          -1.26695552485067    0.05317622549837    1.20738978959461
H          -1.11820485308473    0.31681460530513    2.82082268611826
