    26
        -50.44737006  Gyration_radius:  2.55583739033 Dipole_moment: 4.471
 S           0.81127301185528   -1.13393240444049    1.91776905251785
O           1.05641829565152   -0.67505183510491    0.56085276519829
O           1.95002411125189   -1.20832467993676    2.75306450492140
O          -0.29656760847687   -0.21512302034496    2.51924573387263
O           0.08485199995024   -2.47564834866820    1.85052489551308
H          -0.82792410995096   -2.26843025476192    1.43614853357957
H          -0.00897203596292    0.74755044390680    2.50743400726893
O           0.61647392978454   -1.48443232366825   -1.96219037492119
H           0.88749132760992   -1.23149986834473   -1.05770111738154
H           0.68700906739005   -2.43932128136428   -2.00500174164339
O          -2.13660335265016   -1.73771400909199    0.90655590430592
H          -2.41596927118566   -1.10994452688174    1.57734701670968
H          -2.04831164453671   -1.21700543437324    0.05558466764000
O          -1.76392882446150   -0.27735907724755   -1.22846663102911
H          -1.06035750598906   -0.74795407143076   -1.70696162187752
H          -1.33774061362992    0.53982100232031   -0.90705400890807
O          -0.00820517046377    1.60207855522321   -0.29174518097587
H           0.43831086059006    0.78692611069049    0.01715013469979
H           0.41741910587846    1.78217011351166   -1.16367471466601
O           0.24768704298373    2.28912919103411    2.24764079308460
H          -0.48753739152029    2.82585248388126    2.55153742309569
H           0.19429886864840    2.26482727154566    1.26410997129553
N           1.14066093396463    1.45055591023991   -2.73245697928944
H           2.11868202274080    1.69889158672116   -2.81163532888133
H           0.66263820830838    1.79749764293077   -3.55451904110212
H           1.07887872222179    0.43644081366099   -2.74355865302353
