    26
        -50.44837930  Gyration_radius:  2.4895814277 Dipole_moment: 5.224
 S           1.09845770273079   -1.23577144093995   -1.60281012599639
O           0.46334953503930   -0.07729701857190   -2.21674196695493
O           2.16679969593268   -1.80825194670418   -2.33280087010924
O           1.57880023018297   -0.77292038463771   -0.18597054397891
O           0.05405476558210   -2.28461853641511   -1.26735803108236
H          -0.77666438401683   -1.87410219355586   -0.77128328927283
H           1.77522994685387    0.21182146729700   -0.26096878535157
O          -1.11688189528918    0.04694602554716    1.99914416599866
H          -0.31854247359100   -0.41107391198507    2.35055088675353
H          -0.81168834942741    0.87780184101407    1.60877390285645
O          -0.68814184693647    2.33679411153487    0.37511548761245
H          -1.20188898548567    1.93300721019435   -0.35336713542100
H          -1.16206213351194    3.12248556434218    0.65166744400796
O          -1.82684928474191    1.02546495423839   -1.71230889233272
H          -0.96931045705908    0.59907784352223   -1.96809759588130
H          -2.25152316493662    1.28815064788736   -2.53021309189071
O           1.76006657501382    1.72177804850596   -0.68339727055809
H           1.42969188520559    1.47694497829320   -1.56022954978159
H           0.99494966034365    2.08970210047292   -0.20351299455600
O          -1.90942495781054   -1.23955868557153   -0.13030231120718
H          -2.15715988125316   -0.48539729223461   -0.68783606814284
H          -1.64972686427646   -0.84109456664020    0.74933938689819
N           1.15109184615105   -1.27758170010977    2.69710046933378
H           1.51575063131171   -1.30086060648490    1.74956504969342
H           0.98499582830659   -2.23263897093446    2.98792663829757
H           1.86662640567933   -0.88880754805809    3.29801508107075
