    26
        -50.45592085  Gyration_radius:  2.41388685417 Dipole_moment: 3.048
 S           0.19767325813275    1.07068993426442   -1.45743143370549
O           1.13499326397492    0.15463894768012   -0.85475858373024
O           0.73712276902094    2.32239389023460   -1.86706056185281
O          -0.48137221703793    0.37250259947380   -2.65843193387328
O          -0.98744283347307    1.26165902588274   -0.49228938167367
H          -0.60368806893584    1.38850889074359    0.51778634365324
H          -0.77732026247450   -0.52756905062741   -2.34517472358037
O          -1.36714131232996   -1.90313244071377   -1.72727634129760
H          -1.83769383701635   -1.59285937665915   -0.89786382865438
H          -2.04662574272639   -2.23769204156566   -2.31577393121472
O          -0.01415608669089    1.41199554875986    1.76129432131223
H           0.03794413452985    0.46171756531598    1.98599682333654
H           0.90159460240308    1.73014935757562    1.49634423686562
O          -0.27179088084074   -1.29274034278318    2.07707235864308
H           0.21111369464303   -1.73832980474595    1.32602047323467
H          -0.12084595042372   -1.82821405214141    2.85670229070351
O          -2.44397741714144   -0.90643802707650    0.42365728085104
H          -2.28800092385611    0.01586364193615    0.17582991023320
H          -1.81945703628047   -1.08238520064350    1.15070667851624
O           0.87043286168582   -2.34224895457919   -0.03039365138558
H           1.16317111694621   -1.47038405106836   -0.36292697519216
H           0.17988058888868   -2.60858550721559   -0.64947348808429
N           2.21573844250973    2.28107556801978    0.66411891821378
H           1.80098385400861    2.55432446655924   -0.22420907218797
H           2.79265895527211    1.47222343448083    0.46687966731301
H           2.81620500719085    3.03283596886211    0.98065463354645
