    26
        -50.45092441  Gyration_radius:  2.54436470894 Dipole_moment: 2.453
 S          -1.22786115366711   -0.79171276359005    0.48552955159485
O          -1.43684243243844    0.07153546386254   -0.65394762565660
O          -1.10125568949458   -2.17844648321764    0.19417252817689
O           0.04036329519057   -0.30493783423436    1.23161585668229
O          -2.35383442190964   -0.60216029245744    1.50459377981343
H          -2.35036285349381    0.35835932969465    1.83500784725228
H           0.45009515352756    0.52552439013033    0.81548971853331
O           2.27664585406672   -1.45557353912106   -2.06466972315800
H           2.08303594106719   -2.12100051769784   -2.72637476888984
H           2.12800274641302   -1.89086018736101   -1.18338257151553
O           0.72436529253458    0.71462636452990   -2.20709523219280
H           1.32421775600310   -0.06511474846200   -2.24518227674186
H          -0.15180503906653    0.38030737467675   -1.96115092264900
O          -2.34661492735309    1.83821972464436    2.22191147928870
H          -2.00839422490026    2.29322491064525    1.39896467023087
H          -3.24434506833897    2.14932068980252    2.35632296294652
O           1.17107077523414    1.69550107928946    0.11050278607963
H           2.11141145767281    1.65523638849153    0.29453244477620
H           1.05788999547851    1.40340851043875   -0.85654278392951
O          -1.45155710477292    2.69443318375046   -0.06354361269441
H          -0.49692818825080    2.82081039682200   -0.00340921499731
H          -1.56212022492762    1.82221383196224   -0.48658170648813
N           1.71031657781562   -2.65168114130374    0.26783139564477
H           0.69175519545579   -2.62496979267184    0.22486142510175
H           1.97644469062012   -2.12220103063159    1.08907226650382
H           1.98630657752056   -3.61406330798167    0.42147170630096
