    26
        -50.44686442  Gyration_radius:  2.48258369577 Dipole_moment: 7.316
 S           2.26719549240321    0.07521296818449    0.95041886937289
O           1.07352858007906   -0.08498265861940    1.75999661256329
O           3.42566822555481   -0.59184496261220    1.42228986665721
O           1.90888614900338   -0.38862169151729   -0.49639804047082
O           2.52763072882265    1.56603717907065    0.74902132342942
H           1.59927863441294    1.93828824290014    0.51165370976839
H           1.20434459336187   -1.11825788851968   -0.51656519636797
O           0.00158462215643   -2.09170796722443   -0.59496703633907
H          -0.31424461123003   -2.21028548965626    0.31743396343635
H          -0.69561269843795   -1.58107241390422   -1.05052940853858
O           0.18012837465326    2.22251997311709    0.09990420971511
H          -0.39321548251046    1.57223995818985    0.53413775602771
H           0.17616341609148    1.97869204765388   -0.86754524749917
O          -0.76792222201017   -1.84376352926969    2.03173743130156
H          -0.67518015607594   -2.38994701076823    2.81344556885281
H           0.00898715450374   -1.22743655578493    2.02743359374165
O          -2.04714864274271   -0.49602506322365   -1.48192360288729
H          -2.91228872505946   -0.89644222505173   -1.58348235756701
H          -2.06904294596394    0.00936037786256   -0.65139323068531
O          -1.91039318823530    0.49900133932214    1.07647496140706
H          -2.18390641312042    1.07289181873561    1.79378717667298
H          -1.58344463622656   -0.32322743337936    1.48220725313739
N           0.26056217731191    1.24747366976192   -2.37822769892752
H          -0.54762195120126    0.64517746736293   -2.48660436849203
H           1.06963346356277    0.65580753186948   -2.22375690846658
H           0.39643007090070    1.76091234550287   -3.23854919984379
