    26
        -50.44795739  Gyration_radius:  2.46808423772 Dipole_moment: 5.630
 S          -0.84524717631268    1.09676819342802    1.26471793002022
O          -1.08919268054347   -0.07060498344782    0.46606400401450
O          -0.48070733709743    0.83484955262664    2.62015977217213
O           0.27473113594474    1.94254046882630    0.57685178820907
O          -2.03237928981439    2.05587339197270    1.20265958458789
H          -2.16820825456464    2.18212675479170    0.20468968299463
H           0.90426212879386    1.36955465207635    0.06343304932009
O           1.99294376306635    0.50474367878817   -0.75100644514211
H           1.86997560590899   -0.44637269297976   -0.50520032841791
H           2.88159520548335    0.75022191471022   -0.48690319472371
O          -2.08852380381206    2.33470344855202   -1.32366357887078
H          -1.79344861611901    3.21910575198344   -1.55167184518381
H          -1.45219809747792    1.71300998677744   -1.77289103309377
O          -0.61817435624053   -1.69587832104560   -1.63806810471480
H           0.23541458795504   -2.01017635421714   -1.31582737390759
H          -1.00905160306088   -1.24148022504447   -0.87563982864110
O           1.70964744537758   -2.00477359830237    0.02528276257827
H           2.43109201570465   -2.61161139068173    0.19659825094600
H           1.14990665083867   -1.97574716216574    0.86303850603935
O          -0.26735501889871    0.83830779188276   -2.51393003297312
H          -0.49839933844430   -0.10780798636603   -2.39339001448498
H           0.60044963673159    0.93037959372838   -2.10616560405853
N           0.27179901982866   -1.93714453901652    2.23931995847195
H          -0.62321082703028   -2.32216713450756    1.96067877509841
H           0.09577441458323   -0.95518488603296    2.44980767649825
H           0.54850477951652   -2.39323590613624    3.10105565324182
