    26
        -50.45007662  Gyration_radius:  2.50580358575 Dipole_moment: 4.969
 S           1.82873656407516   -0.07351709056689    1.62868076415060
O           1.93796872562557   -1.24469684920510    0.78667575216467
O           2.98662786732671    0.32481013016719    2.33524903696993
O           1.29172243237072    1.08228330367049    0.72749212587607
O           0.66626105962412   -0.26150294837998    2.62596628749229
H          -0.16258538435849   -0.55142289977798    2.14399118107941
H           1.55073982978938    0.83473399004172   -0.22822880996834
O          -0.13274540141033   -2.61687567338061   -0.21133320817561
H          -0.23822844253997   -2.16674206460876   -1.06800468805346
H           0.72938193595943   -2.32031107814130    0.13762483576427
O          -0.44804718431542   -0.82040766198378   -2.27345342708335
H          -0.78602014592277   -0.86646353958873   -3.16827245340453
H          -1.11458537177759   -0.28254690889094   -1.74729620043011
O          -1.45221728788901   -1.11397031391495    1.40055870981944
H          -1.01921036588606   -1.77462311101690    0.76783110149647
H          -1.97570998711821   -1.62930615025131    2.01696296051986
O           1.93804453377755    0.14716065285925   -1.52878359543751
H           1.08978372215121   -0.16571667195203   -1.91682298532373
H           2.31558339739787   -0.61734998302803   -1.07221881077321
O          -2.11480064349163    0.51263927369663   -0.80174463353120
H          -2.07028167063392    0.03318854025236    0.03778431974676
H          -1.75144636670452    1.41072626505017   -0.60919103715103
N          -0.93478348608461    2.84666077021240   -0.09380550476965
H          -0.11700393053932    2.43730514858571    0.34886670954806
H          -1.40753369590524    3.41894211364533    0.59438219769942
H          -0.60965070352062    3.45700275650567   -0.83291063822261
