    26
        -50.44576823  Gyration_radius:  2.58095739962 Dipole_moment: 6.257
 S          -1.93077333526248   -1.77771631436262    1.24900639504533
O          -1.90564581619624   -1.17479358080091   -0.06337694121198
O          -3.00781874203839   -2.63804947394297    1.55643733953121
O          -0.58615232197418   -2.54173848294910    1.43740836340154
O          -1.86108551076085   -0.65189158334108    2.31301227337151
H          -1.24774533972013    0.08491062528874    2.04149965842839
H           0.11614332297448   -2.15830838136465    0.84954246730533
O           2.03466854290485    0.79982608185354    0.79763060081629
H           1.98730269719991    1.28143394380772   -0.06557547991664
H           1.96048854712454   -0.13863386875780    0.56778090626439
O          -0.28879188691736    1.34163428785746    1.74977678028580
H           0.64942807701188    1.12027534954642    1.43992868984678
H          -0.19575001029523    1.85029444576788    2.55662286052657
O          -1.30782101802384    1.36998162203311   -0.83065542839836
H          -0.96786004043430    1.63979599901696    0.03462148622589
H          -1.83597963152007    0.58035529625398   -0.62964440610641
O          -0.14307916845262   -0.73158195192399   -2.14297059169023
H          -0.40303572049314    0.15650095318063   -1.82491523178285
H          -0.92848462017801   -1.26342147867331   -1.96784429612898
O           1.27382212932503   -1.66700694329833   -0.17762566560521
H           0.77250590764929   -1.29471341788747   -0.96544653748265
H           1.75323453225368   -2.43541264308084   -0.49211303686217
N           1.60581693958522    1.96415312829632   -1.61832944917780
H           1.75235735581316    1.29753648798452   -2.36686897395439
H           2.09217140930919    2.81777455836881   -1.86114837416617
H           0.61208372111506    2.16879535113370   -1.58675340857790
