    26
        -50.45355138  Gyration_radius:  2.52118807182 Dipole_moment: 8.288
 S          -1.12987990749664   -1.43435816717848   -1.66712157533203
O          -0.23392681518393   -0.27190864451829   -1.89113270286875
O          -1.25399357309062   -2.28439412360634   -2.79859925173589
O          -0.65808751795801   -2.14010606166904   -0.44961781758571
O          -2.53139933746346   -0.83974918791858   -1.32176466880563
H          -2.42721061258574   -0.19285669431514   -0.58758016660898
H           0.91827111701876   -1.97978179283248   -0.47054559311311
O           2.04546255925655    0.08124974456952    1.57129723374650
H           1.86487233380983    1.00383533017614    1.23306108370714
H           2.75933011897782    0.15846699502434    2.20519131785758
O          -2.32384445517692    0.81395386733992    0.76429984013724
H          -1.68434396843851    0.25102480467961    1.28647068787009
H          -3.16772860792355    0.75825731285728    1.21532350708405
O          -0.54327797242444    2.17120932379522   -0.88523882101289
H          -0.42153050349064    1.35411413646946   -1.40973437776132
H          -1.28247061151049    1.97106030661243   -0.29510380263408
O           1.56760925610492    2.45347887041551    0.62893384427219
H           1.33955673301098    3.18409773370964    1.20523030371920
H           0.80826848539068    2.37245953462581   -0.01448484154197
O          -0.63381536999957   -0.83188626715971    1.84683234125907
H          -0.69247975514761   -1.43834000106607    1.07428766921824
H           0.28505161952256   -0.52946079229284    1.87959146993257
N           1.72716587193149   -1.33107419509320   -0.71410870480169
H           2.03442539722103   -0.82276219012427    0.14086050798317
H           1.14550912631475   -0.68534675249048   -1.34727521049867
H           2.48846638935908   -1.79118310003486   -1.19907224251964
