    26
        -50.44271354  Gyration_radius:  2.5560858971 Dipole_moment: 5.359
 S          -1.68732143963709    0.29030345353553   -1.94133630840795
O          -1.96927865631800   -0.10667993069292   -0.58063211291969
O          -2.60692604960170    1.18028834623285   -2.54535494270113
O          -0.23430870605182    0.86369249485163   -1.96241800813980
O          -1.51534190067497   -0.98152195937693   -2.79624543944034
H          -0.78085780926875   -1.47509312289732   -2.33308837093596
H          -0.18247397283574    1.71771940445364   -1.40095229393936
O           0.47744127060565   -1.73728924037494   -1.35437213459598
H           0.21947877124586   -1.95085366651278   -0.43219927866021
H           0.70859961801475   -0.80095539336068   -1.35982108930448
O          -1.32310443373388    0.17712229499450    1.92046105768384
H          -2.09877394774638    0.44065991310362    2.41778029364195
H          -1.59642095704020    0.17133760494633    0.97290197671633
O          -0.19062150086273   -2.22191517755429    1.24353279500886
H          -0.91426815372615   -2.85080676242302    1.23230185547886
H          -0.56106383645513   -1.38594198573725    1.58653266198820
O           0.01458729382876    2.87361540322910   -0.46125657074443
H           0.42282521721348    2.43965819055578    0.34858361193907
H           0.66074842015325    3.50049186870410   -0.79239225883161
O           1.02388351918361    1.57509422374561    1.54004944487206
H           0.21798019971138    1.14328499383768    1.86745939106428
H           1.61172822819200    0.83584679438412    1.26307645804455
N           2.45945397677115   -0.67349061735288    0.90500249580018
H           2.77456004979373   -0.88498006166824   -0.03412393667940
H           1.80729395064355   -1.40180194100146    1.17764492937950
H           3.26218085859657   -0.73778512762333    1.51886576368353
