    26
        -50.44213087  Gyration_radius:  2.58031357216 Dipole_moment: 4.215
 S           0.97595879114286    1.11477410654375   -2.01467235496532
O           0.10545075281664    2.07213450212092   -1.37489647707699
O           2.00919991091813    1.61744462024639   -2.83867796376327
O           1.52975877793408    0.15922112300467   -0.92439341763042
O           0.09857159197370    0.13183089238363   -2.83726929306470
H          -0.70525844964043   -0.09681500647490   -2.30189060939980
H           1.78873665073469    0.69726184468485   -0.08539552055271
O          -0.02367376152599    0.68876889393622    2.50747792957482
H          -0.72061512294866    0.95260830831233    1.88545189786889
H          -0.06889631601869   -0.29014359742700    2.54612367232974
O          -1.66202779048565    1.51307174659480    0.41864954629835
H          -2.17781903105042    2.30230234723625    0.59362708469423
H          -0.93171529617878    1.79487965320888   -0.19252445978673
O          -2.06635947183879   -0.38430552395208   -1.43433742815941
H          -2.82788393393956   -0.11047349243998   -1.94989397178885
H          -2.01475033882501    0.21895335103489   -0.66014883321673
O           2.08753155335232    1.38102640364454    1.19401829079291
H           1.28145280344899    1.17130245327820    1.76495668752599
H           2.84406560154502    0.99285164380586    1.63821195836807
O          -0.09763488465814   -2.00188793984939    2.35442305706828
H          -0.10160561884599   -2.16725446396880    1.37655917153930
H           0.59746289497722   -2.54854976221687    2.72180406741192
N           0.01095428490566   -2.33213301303142   -0.31996246084273
H           0.68767058319881   -1.62895781805951   -0.60183869072831
H          -0.88481423920996   -2.04454971722655   -0.69763459628209
H           0.26624002822786   -3.20336155539282   -0.76776728621327
