    26
        -50.44954285  Gyration_radius:  2.48773058057 Dipole_moment: 6.132
 S           1.40166075073015    1.36354097801605   -1.55213644326681
O           1.67342680576423    1.59549324999792   -0.14602679508492
O           2.46088157989612    1.63727347695584   -2.45005291374489
O           0.94668805142642   -0.12540295985442   -1.66048877175305
O           0.14338056141044    2.12660291976236   -1.97694403650502
H          -0.63427188621515    1.83719393911319   -1.38166673449123
H           1.28069928731469   -0.57231076005127   -0.79668405527661
O          -0.11395935285953    2.03404385853970    1.72108193372759
H           0.62143934081251    1.88931364127184    1.07923549634522
H          -0.06565951354620    2.95739881853564    1.97362591986391
O          -0.10922920571444   -2.66698001843146   -1.40267327425139
H           0.57804229126617   -2.80422866386667   -0.74336724738587
H           0.21652107624565   -1.95902849006967   -1.97227238754739
O          -2.11806514253216   -1.32316063377112   -0.24464876218281
H          -2.93822967032575   -1.56337099293736   -0.67854442559697
H          -1.40980022485995   -1.85583616114678   -0.67616012586862
O          -1.68095655733953    1.36680204692716   -0.38703251342486
H          -1.28823628234154    1.60402186903339    0.47578790036720
H          -1.81999419545573    0.39798770914754   -0.37167466502245
O           1.75653091627587   -1.13977812441817    0.49900327503280
H           2.31665607507427   -0.39885478604838    0.75049473443069
H           0.95782208968563   -1.09598083416727    1.13170274341809
N          -0.31921966299070   -0.89120033743854    2.07017049894994
H          -0.36764298576265   -1.39796205006274    2.94373204486824
H          -1.14237665376326   -1.11858952985540    1.52188075977722
H          -0.34610748218824    0.10301183481727    2.27365784461883
