    26
        -50.45067387  Gyration_radius:  2.45792088556 Dipole_moment: 5.756
 S          -1.15319007775953    0.83451061008388   -1.56740715778415
O          -1.92325670518850    0.61623901625990   -0.35560520258152
O          -1.83689223887903    1.38916551539341   -2.67373248926166
O           0.05319534734006    1.73711223019480   -1.21714332687919
O          -0.49842323572848   -0.50382247540968   -1.96899821044582
H          -0.46762942994766   -1.19443279353526   -1.19141806137419
H           0.37839826895736    1.61686779989583   -0.25762922476092
O          -1.61352394067893    1.29849221318591    2.18184169657613
H          -2.04738243709165    2.12221285722416    2.40826957901363
H          -1.82360951107187    1.12260118882221    1.23855847392534
O          -0.30190123192938   -2.13934397314137   -0.07767856161922
H           0.50398633835734   -1.84937819863889    0.38782197157289
H          -1.06172411603731   -2.01876099271496    0.53759971300138
O          -2.38994953469077   -1.41912157848451    1.41920000048149
H          -2.15779577909364   -0.86284052253821    2.17056180515566
H          -2.59611600919282   -0.80092031809387    0.70159341450651
O           0.87913002332391    1.42039061009131    1.16881112792327
H           1.30128838131244    0.54212246505576    1.20294952674419
H           0.07416038110820    1.37431804142299    1.72253774632049
O           2.01770611405335   -1.01598122602187    0.79971745754292
H           2.25312296453229   -0.73156528768950   -0.13574958487384
H           2.79916101432476   -1.42164650895691    1.17680530438999
N           2.42803418989456   -0.14189409433590   -1.66667151227321
H           2.47591909608875    0.86992083549652   -1.62881463695604
H           1.53869388385307   -0.37402472126185   -2.10148307180406
H           3.16859824407421   -0.47022070233779   -2.27393679653227
