    26
        -50.47231566  Gyration_radius:  2.41634525565 Dipole_moment: 3.653
 S           0.08590835336206    1.38887643729313    0.44920996001251
O          -0.93616762166831    0.51643232056204   -0.14722423874642
O          -0.01894401524219    1.43253491555205    1.88400881069189
O           1.41847551597764    0.92499378933020    0.01319781143878
O          -0.12638267330985    2.80876640332273   -0.10915228948282
H          -0.23590782067877    2.69094261888727   -1.09416965675395
H           1.59451657534729   -0.52339143495582    0.55967079402959
O          -2.34573636358990   -1.01531238201440    1.48847953506763
H          -3.05748257366429   -0.51679103495895    1.89228187816606
H          -1.89637275292069   -0.39052865271577    0.87630826107605
O          -0.41607508499542   -1.86043070915383   -1.06373906958559
H          -0.66154689189897   -0.93378414157596   -0.80916450761056
H          -1.21147335173325   -2.37713608609285   -0.91973558729014
O          -0.06976782080848   -0.99642513717326    2.91991921523616
H          -0.96605467251794   -1.20901240353955    2.58542817656109
H           0.00050098842180   -0.02690492313906    2.77294655663905
O          -0.23692677827996    2.42378347680418   -2.67023896856117
H           0.21879887592888    1.54916162755250   -2.75372819642550
H           0.32822160165213    3.06344945805489   -3.10892408861976
O           1.15093238703745    0.17842784127840   -2.51360658212978
H           0.63838342821895   -0.63182183156826   -2.42448585918900
H           1.37779498716398    0.45317498385819   -1.59931365717314
N           1.41891211053786   -1.52659918892780    0.86836878277356
H           2.28317400684532   -2.04559425054686    0.97666100249257
H           0.80028980893465   -1.93448688842160    0.13224923307626
H           0.86292976175393   -1.44232479789315    1.79475268460221
