    26
        -50.45935134  Gyration_radius:  2.45156673979 Dipole_moment: 8.697
 S           1.43912454429407    0.01102679521494   -1.39063672143725
O           1.14152447513533   -0.17439207616207    0.01806118120353
O           1.73930328604444   -1.21899129537642   -2.07324269432734
O           0.30608947089285    0.74439842112102   -2.01172933899406
O           2.69352178382742    0.94100229723980   -1.50352275976428
H           2.41945387781721    1.75081880211236   -1.03555344178699
H          -0.84392252378118    0.57654785010838   -1.10943461708679
O          -1.48722874190186   -1.97341865937927    0.73243143618145
H          -0.69237598841378   -2.33184215006261    0.26113262701940
H          -2.12598772276234   -2.68812876686999    0.74931880189461
O           0.18411081777512   -0.36154754807483    2.44491600614039
H           0.77772308427009   -0.36937226013997    1.66876422382125
H          -0.47778712393865   -1.02790532229257    2.22291968745617
O          -0.70037910954901    1.97410526939710    1.68950799388241
H          -0.31257924814821    1.13526655969378    2.07338687908772
H          -0.92266930754243    2.54188609332566    2.42792027671851
O           1.06854043026956    2.79701763050797   -0.43867784808837
H           0.61843523964841    2.29598192752705   -1.13694728427824
H           0.62974619216729    2.55033962089595    0.38851380696107
O           0.44149393592003   -3.04375997868819   -0.70911275163856
H           0.34896227037282   -3.72426456169945   -1.37873049027095
H           0.99905195746419   -2.34578529486870   -1.12560156170226
N          -1.64865525688901    0.50531480730570   -0.37543448339791
H          -2.54398403114927    0.72004619622789   -0.80130476742505
H          -1.41982377682161    1.17435991579515    0.38817502645481
H          -1.63168854499101   -0.45870425287559    0.02488081337979
