    26
        -50.46546416  Gyration_radius:  2.43814548789 Dipole_moment: 6.722
 S           0.07691928562964    0.98709893256185    1.41117969534727
O           0.18884237814421   -0.45114259316877    1.64269453620997
O           1.37947655732570    1.61261815656768    1.28266421783094
O          -0.75240554164982    1.25450635201279    0.22392347343491
O          -0.65623820195343    1.61837823501324    2.61488343636105
H          -1.57654627923402    1.25808060603981    2.50098985053824
H          -0.18621416057764    1.08808322151620   -1.07944278860393
O          -1.98546922024310   -1.42611061294426    0.49362634311074
H          -1.15298217604128   -1.19773486799060    0.95549104685315
H          -1.75945808366476   -1.42343663953571   -0.44224823170093
O          -2.92987937082092    0.42344950446061    2.19520598190763
H          -3.09997294899265   -0.17265485475047    2.92870644038723
H          -2.72010504578755   -0.15668312360383    1.42922287604601
O          -0.29046420996272   -1.73773703029128   -1.96583603386105
H          -0.28842179272662   -2.56303502914392   -2.45169639717150
H           0.42395029281715   -1.81981138723933   -1.27215724718475
O           2.71447237416683    0.89601151129404   -0.79044786543012
H           2.24051447559684    1.18462728482747    0.04385207441446
H           3.56154220261077    1.34394456820794   -0.77218481180196
O           1.64087854591885   -1.64912263281087   -0.21022740765262
H           2.25337928326512   -0.93887432054730   -0.44501165950804
H           1.16590990375198   -1.31881104725260    0.58346260370237
N           0.32053548433796    0.86484277905841   -2.03545854397243
H           1.33351150000811    0.92441889594492   -1.81908095144919
H           0.04145551669125    1.51535455200128   -2.76018230391766
H           0.05676922140381   -0.11626046023174   -2.26192834389124
