    26
        -50.45318376  Gyration_radius:  2.46121375562 Dipole_moment: 1.653
 S           0.80372426304855    0.08014108357112    1.70454932815841
O          -0.27498356185525   -0.50136825283025    0.94737059876519
O           1.84024486776904   -0.82358118201282    2.07561529743910
O           1.39199177202437    1.26216010224370    0.88918569450631
O           0.24701580572222    0.77908393800618    2.94868379474778
H          -0.49077339978530    1.36704460273032    2.58881588579171
H           1.14381316818161    1.21687828463027   -0.08812031629869
O          -1.48278078152586    2.28459837061685    1.82806724627698
H          -1.16737844052147    3.19069607611791    1.83559201568835
H          -1.64073811654922    2.05811955547332    0.87092080244604
O          -2.15089995926889   -0.97265037642963   -0.83802168276116
H          -1.48573280098641   -0.86091784497121   -0.12870026424114
H          -2.87122208445187   -1.47629552745872   -0.45677857245123
O           0.31974811518023   -1.23555299736241   -2.17198534303883
H           0.83354273729103   -1.75360287361546   -1.49694862010627
H          -0.61106682823054   -1.31202109636682   -1.91732586043819
O          -1.77869300054779    1.78640988624572   -0.74349040606504
H          -0.89481313636328    1.77296693866941   -1.13762333559464
H          -2.12055532901806    0.88659534852901   -0.87196066506356
O           0.80652581232679    1.20045595070253   -1.59980144210052
H           0.61872597759974    0.23060704486722   -1.86159092107888
H           1.55431236659603    1.48416288326228   -2.12823165441909
N           1.72063657251878   -2.54397401972641   -0.27874922551519
H           2.68362351675391   -2.76045073798997   -0.50726770396616
H           1.27420856386723   -3.41228674067443   -0.00885300354264
H           1.73152389020320   -1.94721841622738    0.54664836287036
