    26
        -50.45072027  Gyration_radius:  2.45483938494 Dipole_moment: 6.275
 S          -1.26796426989711   -0.76908283188946    1.74828997646195
O          -0.67109679811845   -1.84658166904891    0.98418134679890
O          -1.94787563964945   -1.12459600997017    2.93687387816983
O          -0.14741558620473    0.26664178399729    2.03864834997401
O          -2.22018335126422    0.03494572073176    0.84178747637287
H          -1.90539375671887    0.06424510889438   -0.13865207311825
H           0.77001131964130   -0.22117785898569    1.89244789695556
O           1.89332336458679   -1.04265605005699    1.51724216680110
H           2.09967284815106   -0.70489258834673    0.58311779581988
H           1.40248157352462   -1.86372342894477    1.39436816050131
O          -0.95114696145237    2.65118691482323    0.99365511778399
H          -0.58572885928869    1.94497670006113    1.55177080257407
H          -1.87645621905714    2.41951195527938    0.87065960255276
O          -0.04805076252230   -2.15515800154777   -1.55176270597924
H          -0.47112797390325   -2.94867570781861   -1.88367873653926
H          -0.24178547483531   -2.12602411812632   -0.58713847802012
O          -1.40765862432571    0.17057173623021   -1.54872408172177
H          -0.91621529265644   -0.65855575691192   -1.71858990414859
H          -0.74552039361145    0.89303130878201   -1.55624148920318
O           0.36604003888168    2.18832305869453   -1.26586783121131
H          -0.04042959839551    2.44579759242675   -0.40195407192606
H           0.32676715401384    2.96795786196449   -1.82192536952698
N           2.16477158425054   -0.21633775996909   -0.96003535813761
H           3.08522184594727   -0.15339750976552   -1.37399022784196
H           1.70891936543911    0.68501237185714   -1.06387298442987
H           1.62684043746254   -0.90134279235993   -1.48060925896962
