    26
        -50.44763133  Gyration_radius:  2.60865462614 Dipole_moment: 4.346
 S           0.68165881322404   -0.53210106575674    1.16171698691816
O          -0.54024341028512   -0.23573621437723    1.86146794773642
O           0.89034073394438   -1.90721335693082    0.84309781325458
O           0.68444317585083    0.31709100903776   -0.15172478136833
O           1.90140060907815    0.00218035131272    1.90398230700973
H           1.90845692853849    1.02366394197091    1.81196611545481
H          -0.30699861974045    0.55362976463234   -0.32490021421221
O           1.43751135806755   -3.41049244898091   -1.32805494005036
H           0.85830059737820   -4.17118061053478   -1.25449526929224
H           1.35784538845183   -2.93188495606668   -0.48284374399641
O           0.56286291945868   -1.21207765897124   -2.60824794830544
H           0.93001414201020   -2.07489905800570   -2.32120771923002
H           0.86782549548446   -0.58021302810752   -1.94751945924982
O           1.76479174238373    2.48879189564332    1.46790908499817
H           1.85472759010384    2.52262303744685    0.51212430500989
H           0.79453348216349    2.66621926772407    1.66962647685146
O          -1.79174311043142    0.64828981286997   -0.37680103869488
H          -1.91812936520997    0.21550258679954    0.47887288429709
H          -2.01418620639720   -0.02974207598236   -1.07219085887479
O          -2.04562744759826   -1.19547070886810   -2.21551237838503
H          -2.46851210376036   -0.96906004301730   -3.04533510997510
H          -1.07650269482251   -1.27744071902833   -2.41648784025539
N          -0.82530630043929    2.60101416713412    1.91452686367232
H          -0.88387589301383    1.60614114210982    2.13023356409474
H          -1.40411412941482    2.76520349299451    1.09950140717898
H          -1.21947369504740    3.11716144491354    2.69029556542269
