    26
        -50.45064839  Gyration_radius:  2.63733307426 Dipole_moment: 1.750
 S          -0.45662161559780   -0.89253504488390   -0.26190229778220
O          -0.86754437297624    0.41694151947477    0.17717716125589
O           0.18292108309082   -0.93365067837501   -1.54528769779768
O           0.50637342452776   -1.49462327406349    0.78561851593739
O          -1.65042109518540   -1.83736699534525   -0.22985869269063
H          -2.26017348920790   -1.49533978065113    0.54039299230832
H           1.46715351916299   -1.18478115244820    0.50516521028540
O          -2.84469579585875   -0.72657794323521    1.66807137836411
H          -2.50330524741973    0.12490649686658    1.36271500914828
H          -2.25691715046579   -0.98886542370132    2.43084543203281
O          -0.31835155553020    0.92990913380714   -3.40436749927885
H          -0.20832140381392    0.24597967775580   -2.71626015909946
H          -0.07089437929290    0.51475305115391   -4.23292778307832
O           1.30143000675726    2.82182331952516   -2.36520200504891
H           0.71433954103284    2.16250925861106   -2.79301796510835
H           0.81139788769410    3.64553968813256   -2.35385828072706
O           2.64020813900833   -0.55622267895035   -0.09504470494821
H           2.37042377286103    0.40623692587295    0.02575029746886
H           2.52022043179695   -0.74340372628509   -1.03158027908310
O           1.50926049048012    1.75523679499802    0.10349791227487
H           1.54197258456135    2.20385812525277   -0.76984137501403
H           0.59509446190034    1.44414920136944    0.20318607785155
N          -0.92387065819155   -1.38725099083442    3.39698528823829
H          -0.98852440453715   -2.23554165015880    3.94523426355429
H          -0.56724442341885   -0.65413194686121    3.99710904330718
H          -0.24390976139916   -1.54155192701825    2.65740015758438
