    26
        -50.44374412  Gyration_radius:  2.69617846729 Dipole_moment: 8.448
 S          -1.23394202649938   -0.15643375675636   -2.76778349599364
O           0.13456805062704   -0.18868028916084   -2.31008422655709
O          -1.45132666222642   -0.17665543367868   -4.16563884458258
O          -1.99668093446325   -1.31246769569211   -2.05910752603039
O          -1.92308551981383    1.09647212572539   -2.16611180613131
H          -1.72750350895008    1.08005205150833   -1.19240486924051
H          -1.34712974464289   -1.95356988637953   -1.64187781053570
O          -0.45059867846563   -2.92960925986608   -0.78173000162521
H          -1.01030957899762   -3.57647921802884   -0.34748453544560
H          -0.11330020923943   -2.32255298193760   -0.07610022017263
O           2.03612106208526    0.27592263276746   -0.58800142020685
H           2.85605906768615   -0.01251633476992   -0.99107339706497
H           1.34634556304238    0.15985122127603   -1.28076045702969
O          -1.42144296708899    1.03292002377909    0.39180063975860
H          -0.58993976876249    1.59486536820663    0.54727021446783
H          -2.14062072527471    1.49052009708257    0.83045101401684
O           0.27392946059401   -1.09346078905347    0.99331812064235
H           1.02385371471059   -0.69307743516074    0.51196535593729
H          -0.46162634899236   -0.47705848569433    0.84329185304765
O           0.78426611254361    2.25071773561944    0.89828851458454
H           0.98185679604990    1.85764160138327    1.78163636023656
H           1.38036658133687    1.79366514488223    0.28519856337267
N           1.22685045383709    0.76965676338746    3.14485215939086
H           0.93745972795256   -0.11810919800372    2.74159574588686
H           0.68644387847059    0.92289672905787    3.98652025670914
H           2.19938621449402    0.68548924948898    3.41196982255340
