    26
        -50.45054553  Gyration_radius:  2.61055246232 Dipole_moment: 2.904
 S           0.10508554942871    1.13254671238616    1.06617004233103
O          -0.75332300809189   -0.02160727854794    0.97233841104427
O           1.33056913854953    0.90235509299716    1.76690039613554
O           0.40151353611999    1.64879570507283   -0.36547137154700
O          -0.62311766873862    2.31318163155014    1.69379222208100
H          -1.28936453787060    2.65652685627570    0.99182784684588
H           0.37390688836361    0.91016281344794   -1.07053675484146
O           2.51316037184804   -1.41649148016331    2.33226497638165
H           3.38157147324697   -1.13536968111352    2.62696419895472
H           2.00792158285324   -0.59161426640593    2.18565498928258
O           0.35472832496848   -0.18960626314976   -2.11792217420125
H           0.05398141933486   -1.01549458919139   -1.61647296873676
H           1.25505898662985   -0.36876756569090   -2.39763786172157
O          -0.27322143893481   -2.17276202195471   -0.60575171687624
H          -0.54371263936664   -1.60729371318952    0.13611251628307
H           0.62745619854577   -2.49387782155326   -0.38073841046788
O          -2.09987146585786    3.06601750432866   -0.21082727761203
H          -1.45023792147944    3.44537089528037   -0.80805169136989
H          -2.37238909714433    2.18422726724271   -0.62100966859126
O           2.25805265903394   -2.79143477188638    0.05257265140771
H           2.39323048435094   -3.71149538686047    0.28540018781914
H           2.37667035289271   -2.28185030113623    0.88631144926633
N          -2.52520715723011    0.65605622648614   -1.16220534823533
H          -3.44565023417953    0.25556507785775   -1.28889177468321
H          -2.08496441048594    0.19253384298759   -0.36925782395176
H          -1.97184739678988    0.43432551493760   -1.98153504498222
