    26
        -50.45402917  Gyration_radius:  2.47122427253 Dipole_moment: 4.833
 S           0.16220306438849    1.53704836790356   -0.65353781439618
O          -0.46485435982580    0.68120246168813   -1.63852699477443
O          -0.73366991537090    2.40123292628666    0.04157529391800
O           0.91283464471979    0.62545819561907    0.35152512470502
O           1.30126409752738    2.32845287303763   -1.27578430944388
H           2.06247063241218    1.66169959039985   -1.46290481810949
H           0.22061072121395    0.04914538520061    0.86737846282397
O           1.30046433316330   -1.30572259420395   -2.04413190399663
H           1.14525875864772   -1.87306567321957   -1.26834017463422
H           0.57474986942142   -0.65697450870015   -2.05538626610958
O           3.06456811907260    0.54109709900134   -1.53337530039840
H           3.28665625397060    0.36793757050281   -0.61482940635392
H           2.50641838286487   -0.23320643396485   -1.83166899783229
O           0.78743178487727   -2.67507937454579    0.31342964459008
H           0.23833586770596   -2.13435523245642    0.89925717802319
H           1.49950339172603   -3.02987749292178    0.84709612551417
O          -0.84862229242518   -0.74179826421820    1.51345759054237
H          -1.29888848886734   -0.00976743039041    2.03063658246593
H          -1.47471911642996   -0.94017311897813    0.77306747558918
O          -2.21923671087447   -1.10054290334045   -0.71689974947098
H          -1.99626711928043   -1.90972139221448   -1.18336004218104
H          -1.73446385482952   -0.38221685251045   -1.16949905310429
N          -1.98150880369155    1.44028644609367    2.45109761409599
H          -1.68457208365399    1.92032007480725    3.29116953052926
H          -2.99298833394479    1.46980944328167    2.41817564308541
H          -1.63297885230594    1.96881084805483    1.65037855486967
