    26
        -50.45523606  Gyration_radius:  2.45563555498 Dipole_moment: 3.562
 S           0.40708446800154    0.12878002298076    1.37158727590528
O          -0.88160335182475    0.73854642250533    1.13843574020581
O           0.35787634481974   -1.21782834774881    1.84203780742251
O           1.23854721395021    0.20230245343576    0.07633106327203
O           1.21575576146358    0.98300255764455    2.34802161257182
H           1.32400205392100    1.88747593036451    1.90132055880990
H           0.67999231267616    0.38327003944978   -0.76524542631219
O          -2.27439695231378   -1.53859426235112    0.69159216655861
H          -2.01745240231060   -0.62128087749491    0.87305359095475
H          -1.70341018296588   -2.06515402297177    1.25826177268311
O          -0.72225603957389    2.84128194051496   -0.48067253401124
H          -0.57423414312230    2.36415676042341   -1.30621349923012
H          -1.04679927452042    2.15809862196809    0.13431480626510
O          -1.18190751605090   -1.73429823103109   -1.77311519830688
H          -1.78608056336269   -1.69755925885081   -1.00366978822845
H          -0.40225652412604   -2.24264102154696   -1.44219286542446
O           1.32873731572131    3.21369469227224    1.11614926564487
H           1.09849676648012    3.94778602508355    1.69037205332330
H           0.60892685812400    3.16204741368134    0.43033341373617
O          -0.10909017145858    0.55056610129266   -2.03323376825296
H          -0.63582656353749   -0.32956045878887   -1.98682040228884
H           0.47712895731718    0.46138762992518   -2.78774301613027
N           0.95134486179908   -2.82984779651491   -0.50902277537887
H           1.87111874748821   -2.56437846277083   -0.83869470254718
H           0.96813963368108   -3.82585854740550   -0.32622184071349
H           0.80816240972504   -2.35539530410273    0.38103467944186
