    26
        -50.44581481  Gyration_radius:  2.56118760457 Dipole_moment: 4.162
 S           0.62312300606221    0.28816463952756    2.17883849464907
O           1.00208011253303   -0.28293121697597    0.89660616175863
O           1.62250776466460    1.06772549730821    2.80879143206257
O          -0.69363653748444    1.07354498821201    1.95782311186305
O           0.15293805025824   -0.84048037428439    3.10394172094289
H          -0.68872917372264   -1.22967468598267    2.69726273325364
H          -0.52026642969236    1.80867380369874    1.26550248211874
O          -2.01169508437290   -1.59073441447241    1.95637838895998
H          -2.58016344068724   -0.83808535756217    2.13732215079871
H          -1.79454466592938   -1.53916976955122    0.99284661714049
O          -1.11244832667673   -1.09657560796612   -0.47728990301809
H          -0.72223994765495   -1.72361775534811   -1.11504873563290
H          -0.33557312721323   -0.74083239397426    0.00293994978048
O           2.20109804568332   -0.13657997270672   -1.49078087246565
H           1.82973277225544   -0.13181633039434   -0.58660479027322
H           3.13795645253668    0.03963718033240   -1.39277442647495
O          -0.30971217007896    2.80201430607422    0.16205179054564
H          -1.05566264364519    3.40371096574982    0.11608900397378
H          -0.31390249258992    2.26351005003842   -0.70279545722652
O           0.67019608032677   -2.37515456256796   -2.09512305176735
H           1.13782748335320   -3.09932110539882   -1.67598741014995
H           1.25776805192385   -1.60078744568043   -2.03661161524917
N          -0.38501773686376    1.32364346914630   -1.99236957968444
H          -0.72952060667353    1.64678003813080   -2.88701191009285
H          -0.94504076871953    0.52540716765880   -1.70112987098251
H           0.56292535243096    0.98294887696033   -2.12286640480633
