    26
        -50.43888981  Gyration_radius:  2.68572633841 Dipole_moment: 5.806
 S          -1.19457633331139   -1.16322451539400   -1.72225239323277
O          -1.54770491622056    0.20419038068999   -1.41610379615341
O          -0.88723291113599   -1.44863945137933   -3.07538566050404
O          -0.03735788750493   -1.57130654056615   -0.76887203550830
O          -2.33794182598622   -2.08344384929924   -1.22990754855459
H          -2.40275383422135   -1.87321211302281   -0.26134165690928
H           0.74653095547546   -0.87265915320204   -0.84511831614967
O          -2.00723285926328    1.31110398449619    1.77620892025762
H          -1.86501847885901    1.82708637806622    0.96145774745617
H          -2.85847732855631    1.57540549210828    2.12778983662942
O           1.80173496941738    0.09969620993920   -0.79517652734430
H           2.58517010151021   -0.38293006648853   -0.43664509842431
H           1.52974604465352    0.74042763408398   -0.09863391828313
O          -1.22844041684424    2.62284167561912   -0.51712934539825
H          -1.29352360263493    1.73615654195073   -0.94039730808292
H          -1.49830675844784    3.25296267969284   -1.18650365171576
O           0.83938640324294    1.75550275210518    1.08372882393106
H           0.29669972010035    2.29804696695729    0.48911667234841
H           0.21166188294962    1.36903684292583    1.70247952458967
O          -1.92647133937537   -1.36862527348377    1.22706130915253
H          -1.00503003799436   -1.51846764691317    0.98491093229777
H          -2.00595141779314   -0.41124146488807    1.41183772774854
N           3.83518524378824   -1.35822899124732    0.28363660775347
H           3.47800492371346   -2.30397102950175    0.33674953437707
H           4.11333366099997   -1.07054799659659    1.21329009574840
H           4.65856605228971   -1.36595944669227   -0.30480047590590
