    26
        -50.46492031  Gyration_radius:  2.39739688807 Dipole_moment: 3.482
 S           0.59062676208562    0.82599850998119   -1.04807190499628
O          -0.52195650649759   -0.12897713099013   -0.95068932255817
O           0.23144841354203    1.88139974721843   -1.98184735542924
O           0.95546824519268    1.34210215809214    0.26437326446896
O           1.81219567308040    0.04094707889085   -1.60819790982273
H           2.32010484689505   -0.26166287679629   -0.79359009834735
H          -0.36734909021884    1.88844109127036    1.16399679550773
O           0.48849411307551   -2.56580767144942   -1.12830879837860
H           0.01135101393502   -1.70907601726995   -1.16236062771854
H           1.27914270906126   -2.43423435694792   -1.65702216676595
O          -1.44405845435617   -0.70562021633846    1.49208413515981
H          -0.73319834012810   -1.24049133913307    1.86689268004624
H          -1.18601028221965   -0.59144294713470    0.55667982304959
O          -1.31021510777962    1.94405132642858    1.43950589921727
H          -1.88931587648029    2.10151972457845    0.09720502660586
H          -1.51493200587827    1.01525657411204    1.70124523568530
O           0.90162717589360   -2.39453609783765    1.49734392282067
H           0.69061166037982   -2.56900414662604    0.54802874458952
H           1.09089062718367   -3.24587300933656    1.89448618446822
O           2.75583975670975   -0.54688565021234    0.70943168214941
H           2.30877020028222    0.28538360839098    0.93608638666976
H           2.19509809572831   -1.24810526938180    1.09705806815334
N          -2.14673842815445    2.10297622156996   -0.98391165602825
H          -2.57470985198573    1.20696635302637   -1.20858330070201
H          -1.19941063271500    2.12578567086037   -1.49428628481820
H          -2.74377469673993    2.88088865506616   -1.24754842303493
