    26
        -50.45219156  Gyration_radius:  2.54538188542 Dipole_moment: 1.791
 S          -0.55754010957155   -0.24328004371878    1.39724578028653
O          -0.86829070903696    0.91481632037591    0.59445082972343
O          -1.67820230557961   -1.10732147374638    1.62315852438973
O           0.58265734891715   -1.02710479511683    0.69999433681833
O           0.07452198220357    0.16020180305348    2.71292924507643
H           1.07741762131066    0.35186254874689    2.53320417617520
H           0.27345415363598   -1.31765465866783   -0.24141218337752
O           2.75901934110900    2.40269288678472    0.37305391485277
H           2.22852087316927    2.04587111874597   -0.39272169840221
H           2.33383828112137    3.22016217261524    0.63681575596234
O          -2.16575058079794    0.19184043422091   -1.65673835560267
H          -1.86682223112536    0.62614310227617   -0.83771995003884
H          -2.82764983082394   -0.45779702500016   -1.39081926178502
O           2.48917525246788    0.48567619595853    2.13163625974343
H           2.63568722905204   -0.30368558461351    1.60237491007670
H           2.64059291049361    1.25819858332176    1.51613452982139
O          -2.72728333777101   -2.37923184015870   -0.45669953976744
H          -2.40456709819322   -1.94838630038127    0.36204124477577
H          -3.37982697782124   -3.02308530573463   -0.17787417822983
O          -0.31148405644701   -1.66757666003566   -1.56855035298140
H          -0.94698244757380   -2.37024715076551   -1.36707112206214
H          -0.89864692141451   -0.90166356207491   -1.80490789732887
N           1.10807033945135    1.38930963629499   -1.45507972509857
H           0.33963038378893    1.29843915405333   -0.79265413820800
H           1.31789095386715    0.46241940628872   -1.80490807412278
H           0.77256993558435    1.93940102728236   -2.23588304070674
