    26
        -50.45214757  Gyration_radius:  2.46442851064 Dipole_moment: 3.227
 S          -1.51190166671220   -0.16758022521497    1.26954192100746
O          -0.72858562826845    0.82313387660486    0.55290060118536
O          -2.86244225679295   -0.28195972241712    0.84846883926094
O          -0.77733502240825   -1.52688636689709    1.15332951559793
O          -1.44790741130387    0.10457603770490    2.77129949304074
H          -0.49756001549124   -0.08258296546778    3.07520219098124
H          -0.16345672448133   -1.60998986831026    0.33982175424524
O           1.84674972421242    0.17572805327483    0.91775919185223
H           1.90662890843388   -0.57061027529751    0.30797820269657
H           0.97623551174242    0.57591594388481    0.73409853454221
O           0.82065170052561   -1.79816312683916   -0.79349057794090
H           0.76872847275643   -2.69520156493712   -1.12797419678210
H           0.57827554287144   -1.18727758613797   -1.58712555660199
O          -2.21552530941078    0.50441005945651   -1.74036929424840
H          -1.73588774307313    0.82373792944360   -0.96291095390304
H          -3.00368132362298    0.08920216773327   -1.37983321559149
O           0.19412143416343   -0.26647413761098   -2.71431823229689
H           0.63527969393799    0.58101429540521   -2.46007093521037
H          -0.75573941414387   -0.08136025564785   -2.59694517607513
O           0.96183143359004   -0.54506376591824    3.29805423664190
H           1.45288989829455   -0.24337363909789    2.49124080394541
H           0.94513613305524   -1.50470557773170    3.26449654621507
N           1.11903817960831    2.01435148564511   -1.59104767574382
H           2.01241119228684    1.94847516049299   -1.11830480155470
H           0.39822500187218    2.01842403782354   -0.87669889248916
H           1.08381967814237    2.90226003025229   -2.07510232262331
