    26
        -50.45019000  Gyration_radius:  2.49747948884 Dipole_moment: 5.273
 S          -0.46465407955741    1.63985697139054   -1.71451743163506
O          -1.15152304909521    2.05630598560845   -0.51240609219390
O          -0.27426049084046    2.61156202077583   -2.72371823686737
O           0.90005061782168    1.02434605002572   -1.26641555186164
O          -1.17563556088705    0.41361080431056   -2.32051117378846
H          -1.39130425232605   -0.26543009173217   -1.61248332675834
H           1.10147964909383    1.42190638869128   -0.35033337170750
O           0.08590802401347   -0.01467267982508    2.47098629734522
H          -0.83866727467832    0.16033482138264    2.12992855163131
H           0.02296281593450   -0.03991653367379    3.42642077943814
O          -2.23020486176284    0.48354271184407    1.37463720425085
H          -1.98323483948680    1.18578992594529    0.74349334951584
H          -2.39041254067355   -0.29174195574268    0.81858230422667
O          -1.73332068458403   -1.40687017955011   -0.58192777197160
H          -2.06976546036582   -2.16759254845734   -1.05826837727841
H          -0.89705065714751   -1.72186695959393   -0.09708510956205
O           1.06262274471317    2.04774230992324    1.04010065686532
H           0.84945792150160    1.30348859840692    1.64483025997458
H           0.22085298786805    2.49148866876151    0.86331782657247
O           0.37520129927207   -2.12326096119436    0.68714686668040
H           0.42349621668255   -1.46738166465041    1.40189359995199
H           1.16176935501614   -1.95895577559541    0.11052420745866
N           2.42726562775305   -1.46992130091734   -0.94547942886947
H           3.31110974177568   -1.26328574028481   -0.49747381423697
H           2.04059170452332   -0.59284463163467   -1.28298506838861
H           2.61726506544081   -2.05623422422630   -1.74825715878674
