    26
        -50.45524995  Gyration_radius:  2.43825739045 Dipole_moment: 5.717
 S           0.60861538456325    0.93631833095962   -1.50152449168884
O          -0.25197581181807    1.36902521858248   -0.41715575193669
O           1.69493970985771    1.79482853916243   -1.81345766707025
O           1.19703203202616   -0.45025013277072   -1.11584630176035
O          -0.25477667300005    0.66391910596734   -2.72760964526175
H          -1.14926858220986    0.18790993983030   -2.41152814080445
H           0.49241768286986   -1.09283193219700   -0.74880514503650
O          -1.82483124275136   -0.10634187217804    1.13746005595944
H          -1.28762279316042   -0.30906334310042    1.92347275342914
H          -1.33189978549683    0.59587969120659    0.67153796697807
O           1.85602445149956    2.49626120235073    0.87418621590031
H           0.94537988113336    2.29700193813310    0.61063809546913
H           2.31063090545053    2.65079728599055    0.03861144954385
O           0.24582793213222   -1.12729321988641    2.59347362925897
H           1.05897018771816   -0.73606853509629    2.18851873631807
H           0.42291914445727   -1.17127519225480    3.53334821225550
O           2.39463830302289   -0.08322707840954    1.42660106727922
H           2.36005305590940   -0.34536695119347    0.49971797788828
H           2.31776739869089    0.89467560410882    1.41761713253904
O          -0.51681097788168   -2.02358177917322   -0.07379617659108
H          -1.12266598811132   -1.37251358896192    0.37969819679115
H          -0.02125340834927   -2.41792879433038    0.65220144767512
N          -2.33673495513314   -0.53085382226602   -1.88722623886767
H          -2.07927699509731   -1.49977277846926   -1.73942661837926
H          -3.12615987764554   -0.48723971784451   -2.51799065284757
H          -2.60193898867522   -0.13300812814259   -0.99271609703618
