    26
        -50.47508723  Gyration_radius:  2.41596945724 Dipole_moment: 4.305
 S          -0.93693078419664    1.24727015017391   -0.82204916609435
O           0.08358359019830    0.61700042253266   -1.67756956972009
O          -2.23821834883032    0.65726994186205   -1.02044325918176
O          -0.51881527705552    1.17048294160183    0.57838364457167
O          -1.00145622918122    2.74860588797499   -1.20830784684093
H          -0.05709638123691    3.01575862064229   -1.16373634316195
H          -0.90914575871834   -0.11697878955093    1.68014879617579
O           1.98328917342299    1.15189692807927    1.23189364523271
H           2.05148742309020    1.54219621404955    2.10525309845532
H           1.01985671999298    1.17987756885200    0.99673571598779
O           1.63740740207621    2.70236557329021   -1.11709048853308
H           1.39354011034978    1.88831441579287   -1.58583930922274
H           2.02551907794218    2.39749472314451   -0.28308370979910
O          -2.29682066434307   -1.82954903753281   -0.27375579564278
H          -2.33682127656594   -0.87117548477222   -0.53509658236312
H          -3.12294033970810   -2.21396125308985   -0.57179128836069
O           1.52617917190584   -1.55813010946327    1.36722736516510
H           0.91574964943339   -1.81236757853224   -0.00451085999411
H           1.90504969752066   -0.65874368639101    1.33078091155397
O          -0.96640366338753   -0.99569589994624    2.10131031404974
H          -1.59320673469391   -1.48601595804128    1.55575605186063
H           0.67505792247138   -1.45433768214911    1.85620200043711
N           0.34358867804610   -1.85437352073301   -0.92556953250043
H          -0.63751214865327   -2.10803569438238   -0.70350608677333
H           0.75174729641655   -2.49603773222971   -1.59611949370472
H           0.30331171372113   -0.86313096121975   -1.31522219157470
