    26
        -50.45092448  Gyration_radius:  2.54427453255 Dipole_moment: 2.449
 S           0.43935988356460    1.08329538039793   -1.00422839513857
O          -0.82053850801780    1.30619308773687   -0.33318166013748
O           1.54231634625818    1.83501380381845   -0.51174063704273
O           0.76858381432309   -0.42868447181729   -0.91890890238347
O           0.29205822514659    1.34765529038267   -2.50446564938911
H          -0.38972873780069    0.70292592030983   -2.89369963716876
H           0.04044728619466   -0.96663801672476   -0.45905173532518
O          -1.23639507249598    0.09776656172739    2.08829177775506
H          -0.38230342267061    0.07736257332317    2.57774524820578
H          -1.15964955594203    0.79874860801803    1.42304950568002
O           1.19915664771239    0.01697588192159    3.18274883732226
H           1.86917601130891   -0.04826406696462    2.45123345946684
H           1.42887674346354    0.80003582934359    3.68502432869035
O          -0.98198666536409   -1.77552157572995    0.36830893233239
H          -0.54618487438267   -2.52449707002941    0.77925151824999
H          -1.16130100928839   -1.10734181486263    1.11315764676752
O          -1.48848510708119   -0.23409647180953   -3.39706572981526
H          -2.01117375794196    0.19972185352463   -4.07485074243750
H          -2.08557785558239   -0.34151102068490   -2.60277507704105
O          -2.81626694170256   -0.29261647970530   -1.16329428495410
H          -2.56658315882140   -1.08204611565445   -0.66799782837059
H          -2.28304281288132    0.42578032714696   -0.77392087821703
N           2.94916909116800   -0.00648036450160    1.15110608031501
H           3.92227504367915    0.21683538142634    1.32179347930598
H           2.55515373417488    0.74258584466916    0.58224019586573
H           2.92264463297908   -0.84319887527207    0.58123013749476
