    26
        -50.45272363  Gyration_radius:  2.41353039854 Dipole_moment: 7.995
 S           0.54007049046860    0.89834216336088   -1.97599154400391
O           1.15480078371494    1.21604063659746   -0.68302679968595
O           1.45586409578121    0.76825126842429   -3.05679109227412
O          -0.19480769997806   -0.50459721144228   -1.73999040397783
O          -0.60173001428206    1.80166444917215   -2.19187209200627
H          -1.05806730898412    1.82156035128918   -0.87742176576961
H           0.43069682623287   -1.18127165597257   -1.31653658638856
O           1.17408633760343   -2.17829997975924   -0.37594544071641
H           1.88016441995275   -1.65682929282498    0.04122888328117
H           0.49832075814248   -2.30358640985462    0.32535675778308
O           0.38360986952401    0.57377912431783    2.12389025528262
H           1.21957128401782    0.30787142788198    1.69275668572139
H           0.62483062075758    0.93445284198397    2.97840373007567
O          -0.77840809205354   -1.90967286333255    1.47918778065146
H          -0.44624132675948   -1.07821854363551    1.84910990942719
H          -1.52711372676703   -1.66905348182955    0.91667610409023
O           2.67464302528469   -0.18656956133368    0.77638713509674
H           2.18555805480492    0.37366245318414    0.10676139940482
H           3.59745789505711    0.05907887346831    0.70454685774971
O          -2.49284323692911   -0.74758697376250   -0.43920490262528
H          -1.69327963945819   -0.72345477611377   -1.01705101808223
H          -3.21217294442103   -1.06358877265856   -0.98746965854436
N          -1.39258589777142    1.66992823581444    0.19097406902094
H          -1.82991678873092    2.50135164656539    0.57300969496748
H          -0.54927721034405    1.40874568088025    0.73086979998893
H          -2.04323056486588    0.86800036960106    0.17214223153383
