    26
        -50.46297506  Gyration_radius:  2.42328028421 Dipole_moment: 5.560
 S          -1.11028662631781   -0.70780587767177    0.90598601674172
O          -0.68097378961807   -0.63033724478905   -0.49920796848481
O          -1.42327000800803   -2.09259009143720    1.22965501157830
O          -0.08494866949996   -0.15365917473138    1.78205465231935
O          -2.39542894259279    0.14123649075005    1.04992129163417
H          -2.06910421063773    1.07817140108127    1.17425879893117
H           1.47250488498937   -0.75688567428331    1.54557546407305
O          -1.03215429618641    2.30132715758405    1.43494692069360
H          -0.56330499255024    2.58998089948171    0.62710942463213
H          -0.45056563943123    1.64017965292169    1.84414954323941
O          -1.44358072092310    1.26188211087599   -2.16916746903233
H          -1.30658637978133    0.52745351919015   -1.53015692024772
H          -1.19919273860280    0.91125019429303   -3.02757190960296
O           1.72880063916541    0.37189998401424   -1.04335448824158
H           0.83013970850799    0.00311612454438   -0.91991938283349
H           1.61387625776184    1.32372309854718   -0.93616352820404
O           0.27301059779144    2.86378653375816   -0.91510173465554
H           0.18305419170439    3.77624785685966   -1.19368903324912
H          -0.37771386728252    2.34277902575842   -1.44406870911061
O           2.21462041660387   -1.17930791963572    1.05462195123541
H           1.45582520204421   -2.32166349697262    0.52799164691967
H           2.32959615608262   -0.58616419965531    0.27566461948565
N           0.70807100020898   -3.04420763015115    0.13724853533317
H           0.96228266868213   -4.00904580078782    0.32471677975297
H           0.58425537522290   -2.87926338029419   -0.85852236354170
H          -0.21892620734732   -2.77210356926540    0.62302282063515
