    26
        -50.46746938  Gyration_radius:  2.37384254254 Dipole_moment: 4.688
 S          -0.93030744888957    0.42424390733711   -1.26162485844597
O          -0.11908600186619   -0.75462772617030   -0.95513806322803
O          -2.22123421175565    0.00222843702199   -1.78520518591710
O          -1.07962352139672    1.27629767577070   -0.07855397680365
O          -0.20111227474228    1.24343301013825   -2.34902632563065
H           0.70799121014776    1.47575318726900   -1.97831912411668
H          -1.44293142982788    0.20128137445839    1.16817762581686
O          -1.45927433403836   -0.61171178618362    1.71831623063820
H          -0.50768245139729   -0.73877234021172    1.95677518976335
H          -1.96740689250883   -1.53440970993781    0.68648863525831
O           1.18048574601577   -0.47220552821352    2.10822013489300
H           1.70655307004249   -0.79386627270761    1.36275038958118
H           1.21299295466073    0.49395143398532    2.02713560902808
O           0.95261653275987    2.19613605351223    1.24828258991549
H           0.14824735322838    1.88009415427981    0.76356714867817
H           0.69660739320591    3.00583329314226    1.69180661606395
O           2.39494836747990   -0.90091570536263   -0.41731768563849
H           2.78064059211589   -1.60803724547622   -0.93538297550136
H           1.42757603848756   -0.88335003318445   -0.64056587866202
O           2.06849985008718    1.69865471076997   -1.20247857754249
H           1.82891160277995    2.07029058974459   -0.33474888175790
H           2.41220351948289    0.80946179829199   -0.99711828863589
N          -2.33920104993657   -2.04350024768633   -0.22215496337771
H          -3.21890311577791   -2.52819748849249   -0.07498733248683
H          -1.61041716607470   -2.66700969056252   -0.55858217955438
H          -2.42109434229010   -1.24105585153332   -0.94031589234296
