    26
        -50.45001153  Gyration_radius:  2.56846955946 Dipole_moment: 2.220
 S           1.14142431685096   -0.39670066012049    0.85321203711246
O           0.53240160728367    0.73970485324001    0.18146167126457
O           2.32017485527743   -0.11255024773360    1.58812033783694
O           0.07675503556563   -1.01229206584212    1.79412629524197
O           1.41059489010520   -1.48589792574765   -0.18669640831372
H           0.50853299912154   -1.74829381533098   -0.63403164074013
H          -0.82666910171799   -0.79483137586395    1.40295096171441
O          -2.12270221610136    1.17325311630926    2.94557412889650
H          -2.18422824237950    0.61423500229017    3.72182067923242
H          -1.21179728712375    1.52873307339709    2.93819364305851
O           0.51394846605346    1.85135771353467    2.66223194616642
H           1.27434942231729    1.33787584035904    2.95080587049987
H           0.54010920108971    1.80741628779467    1.69678157106791
O          -0.84371473541609   -1.95951543494477   -1.20155606978131
H          -1.51390845608670   -1.48912306253415   -0.68885924429315
H          -0.81252596363090   -1.51453222183792   -2.09098750866168
O          -0.52658553987690   -0.67223465101362   -3.47054207760925
H          -0.24202611055273   -1.22149413608848   -4.20264950817205
H           0.26509246731308   -0.14213618638065   -3.18803225230095
O          -1.99273064584765   -0.07462095133174    0.61347184969200
H          -2.30858892729365    0.41324617875426    1.41081114708241
H          -1.38162259941738    0.53686304400233    0.17234726341340
N           1.65040821697089    0.55759669847781   -2.49061117985837
H           1.27014644943667    0.80283050067184   -1.57899769861632
H           2.08409362465702    1.38721104013756   -2.87650177666784
H           2.37906826336037   -0.12610061432745   -2.32244400728559
