    26
        -50.45147866  Gyration_radius:  2.46537978001 Dipole_moment: 6.108
 S          -1.38450715678474    0.33243727435592   -1.93089475739332
O          -1.67708650290786    0.39775085461361   -0.51416553407935
O          -2.18932893319514    1.14018507322239   -2.76975742646659
O           0.12702712154203    0.65239744830842   -2.11783254871727
O          -1.42296814802163   -1.13545306346494   -2.38352018033392
H          -0.71708143714421   -1.58575319938182   -1.82909124911414
H           0.44907147353589    1.37241404920341   -1.49110068826667
O           0.21644699562665   -0.31717114819462    2.72673324522270
H          -0.39725330621956   -0.89481291198476    2.20178244623417
H          -0.02302227416680   -0.43720059553647    3.64643524406266
O          -0.65712587845175    1.94117562027530    1.45173529801350
H          -0.28746816283843    1.23553196081481    2.01803532481792
H          -1.26399146363700    1.47992575669160    0.84790398090797
O          -1.36723844058408   -1.70977499690871    1.13269322834729
H          -0.81565585886720   -2.25422167580245    0.55913472379817
H          -1.65124502259500   -0.96427434175417    0.57128736318552
O           0.98840144695037    2.42360843977327   -0.47449219340325
H           0.81630365382563    3.30817820479470   -0.80199848199928
H           0.40125520194524    2.30449726277451    0.33723007266597
O           0.45876779805089   -2.17281709637907   -0.96759076909058
H           1.03818732748092   -2.62846958465317   -1.58066130823674
H           1.03045758786867   -1.46288583016887   -0.50463179193058
N           1.94691123839240   -0.43882132520249    0.31255120151095
H           2.91566982162459   -0.70966794502744    0.42624647475542
H           1.53745626396634   -0.36083923001181    1.23983690220195
H           1.92801665459938    0.48406098964957   -0.10586856668624
