    26
        -50.45165586  Gyration_radius:  2.47211767237 Dipole_moment: 3.929
 S          -0.51596889074249    1.10602204231835   -1.17999609312330
O           0.35037119751237    1.24323594257033   -0.02906088577168
O           0.14868131739895    0.79057051423311   -2.39936572562362
O          -1.58105022037731    0.02150113519697   -0.85658291119019
O          -1.37158848266904    2.35968608194785   -1.31075001632047
H          -1.51058799573999    2.68135050253992   -0.34631998277697
H          -1.15187852290829   -0.90448886045746   -0.71554689468298
O           1.76954524138576   -0.96117847877114    0.34415803630975
H           2.25718248887797   -1.06279932673092   -0.51169354094444
H           1.38269978979917   -0.06543552848873    0.27421280634074
O          -2.20775591511232    0.44488789908425    1.82060954351529
H          -2.33753378748915    0.19952239541167    0.89561545523267
H          -1.47591635314790   -0.11205199657258    2.13723534028273
O          -0.47789046954965   -2.17403204542583   -0.28272235267744
H           0.44551166154901   -1.85283316845558   -0.09547999400622
H          -0.84399749150467   -2.40173181945378    0.57896250625619
O          -1.43961714373787    2.90001001448250    1.15905074410487
H          -1.85420434904527    2.08966452047382    1.54554294769735
H          -0.49011846398311    2.75324728048812    1.24389810464487
O          -0.07074041171177   -1.25343258665321    2.45088832057977
H           0.71112422212778   -1.13528626614036    1.88883443707111
H           0.23503028677954   -1.22540932996140    3.35864753584950
N           2.52269981597835   -0.92020178826991   -2.22045403322448
H           1.74264414392892   -0.29733059649213   -2.43064889805422
H           2.39537069475251   -1.75771332651394   -2.77554616586064
H           3.36798763763002   -0.46577320036747   -2.54348827361047
