    26
        -50.43925174  Gyration_radius:  2.57407257774 Dipole_moment: 5.425
 S          -1.65638162327901    1.03786724182068    1.67711164864782
O          -0.26225350101881    1.35459712888913    1.46909902599267
O          -2.53627960075028    2.13153510669161    1.85853418211880
O          -2.10613277437433    0.12467421501099    0.49636691562260
O          -1.76006822019257    0.05539554123864    2.86637934321292
H          -1.17768774644387   -0.70208063901238    2.59232288526657
H          -2.07648329269336    0.63349052140084   -0.40254610930893
O           0.91152285983575   -2.39211898951157   -1.08586360167858
H           0.36344290062615   -2.96281424279449   -0.54266374469413
H           1.56738205084053   -2.00841668887083   -0.48761581586494
O           1.78826094137538    1.55694489754935   -0.12445534119165
H           2.23720799636393    2.37280916843085    0.10316495594212
H           0.95752931129609    1.55518905181801    0.40429881504990
O           2.24151013607328   -0.89015389065458    0.91285353943730
H           2.84736754353133   -0.79088416318726    1.64841258964313
H           2.14729409084937   -0.00363540794838    0.50083334251142
O          -1.92998105023308    1.20621498603458   -1.75961330563004
H          -1.01936497449601    0.83750078901028   -2.05106095488803
H          -2.58806097256115    0.81012905079489   -2.33450611225472
O          -0.30910567790161   -1.66177476268799    1.58253153395934
H          -0.83033908460153   -1.34115351972678    0.83542193477253
H           0.60475903847566   -1.34644655334791    1.43293948532466
N           0.38717279505596    0.20041998501326   -2.37874996385796
H           1.02363862097260    0.73184679563944   -1.79131486167200
H           0.71750252617557    0.26420220498940   -3.33301892536545
H           0.45754772703638   -0.77333782659138   -2.08886144109875
