    26
        -50.45091458  Gyration_radius:  2.44483450795 Dipole_moment: 3.959
 S           0.83884174429935    0.98403631360516   -0.98525953317754
O           0.98605486903908    2.18409999489862   -0.18997619320489
O           1.49745115182176    0.96819706068459   -2.24535594307132
O           1.30956759742664   -0.21766856423992   -0.13055115820090
O          -0.65699634055950    0.72442582084177   -1.19696794786931
H          -1.06764528418198    0.04105482649087   -0.49027316363569
H           1.55523324351229    0.10659286236507    0.79743253399531
O          -1.40025197282977    2.60755525362248    0.88538808912278
H          -1.99040158925962    2.31635138739983    0.18551190495511
H          -0.50934429385263    2.62934343789533    0.47718923846124
O          -0.94269866734643    0.70665994067218    2.64343400872257
H          -1.45375643888473    0.80184346009162    3.44835488773314
H          -1.18477935352181    1.47306093131294    2.05859658539676
O          -1.55978538888601   -0.86603223320224    0.47890573993911
H          -1.02383767317449   -1.68264459226976    0.28104238190819
H          -1.27699938980526   -0.52655654393033    1.34685818982953
O           1.71012452639874    0.93584522099895    2.09873166436791
H           1.67554846040821    1.76866536685331    1.60551290059627
H           0.82957089640302    0.82053167784099    2.50458167963530
O          -0.17396102938245   -2.92604540580199   -0.33646972865105
H          -0.72359647406074   -3.62800582650873   -0.68970205160070
H           0.26491516811449   -2.49672563748510   -1.11844364990096
N           0.73317019262881   -1.81306832645976   -2.62321176095654
H           1.51193153539401   -2.30376508745117   -3.04722364015973
H           1.04848986836550   -0.86423940779908   -2.43516090530381
H           0.00315464188634   -1.74351194040706   -3.32294411893241
