    26
        -50.45051061  Gyration_radius:  2.44913794211 Dipole_moment: 6.558
 S          -1.68376204331991   -0.20312891021463    1.34210166129661
O          -1.23946575493446    1.06090036197814    0.79010847308436
O          -2.60634612654524   -0.13495315319749    2.41028054908347
O          -2.20815176067482   -1.07448044044145    0.18716639463089
O          -0.41018619159760   -0.97288272636971    1.80999297388798
H          -0.11308317400641   -1.58216048120251    1.06474296602223
H          -1.99042625476408   -0.65812537520809   -0.74172473728004
O          -1.42248957132917    2.47789079077460   -1.49296764042875
H          -0.51331822710746    2.78325760636921   -1.55160574684816
H          -1.54882204012976    2.21535051138727   -0.56609511921287
O           1.10690278296290   -0.54065067474304   -1.85598312257666
H           1.22941427617051    0.21863696809395   -1.19970323573764
H           1.86846377344802   -0.53089092560227   -2.43618965420994
O          -1.57495926296859   -0.12900690405384   -2.05036002264613
H          -1.64667140733227    0.85250055515428   -1.99003540128062
H          -0.62315105009457   -0.31357269323279   -2.15521572078421
O           0.25210908967158   -2.44484408831174   -0.18311205042418
H           0.64570578620423   -1.83417524565738   -0.84460093630839
H          -0.60374806201338   -2.71452455207447   -0.52903476989413
O           1.27010368395708    1.32523104534225   -0.09795077840582
H           0.36256372329311    1.32337202093315    0.26602362932092
H           1.82382765546118    0.97776061732756    0.63941603556658
N           2.38471140765917    0.11794604125618    2.06319233455330
H           3.06370792557654   -0.62721811298934    1.97103033421943
H           1.49792239842872   -0.30469253818407    2.32280781631865
H           2.67914841398525    0.71246029286844    2.82771576807773
