    26
        -50.44473406  Gyration_radius:  2.48730871604 Dipole_moment: 7.128
 S          -1.66794949607848    1.30760496091043   -1.26096912828231
O          -1.97243759945332    1.25696667287394    0.14107009638868
O          -2.24613231234278    2.33574434704997   -2.04271816723619
O          -0.09756154321369    1.36480459193398   -1.40305108236301
O          -1.96347986673154   -0.06633073098176   -1.89569292081129
H          -1.81670908444141   -0.75750426922515   -1.17290295546085
H           0.33790606639684    1.60258638262476   -0.54606858925307
O          -0.01549273696090   -1.26090871764450    1.88768655977217
H           0.87433862317986   -1.10626405833482    1.53831162136101
H          -0.31049885153348   -0.39777513635124    2.26182542488229
O          -0.70414672533119    1.23728780051557    2.52227234797284
H          -1.35318141337850    1.30932680385257    1.80220216018147
H           0.06735166401444    1.71962594660296    2.20480445689658
O          -1.60170310740838   -1.82635857752864   -0.07897432881137
H          -2.46061066956374   -1.95739573234807    0.32696374732484
H          -0.98300992839651   -1.59851473172815    0.68409811140410
O           1.39709864772725    1.85686584465559    0.69508113115949
H           2.06957139187347    2.47242926541431    0.39735608568389
H           1.80919722719101    0.96442900843368    0.70396163381058
O           2.33262118643740   -0.64143343247144    0.48521352283212
H           3.17899753760251   -1.08590151404281    0.53899461290819
H           1.87928967263190   -0.96093846879133   -0.35651184864141
N           1.00130424604845   -1.40413221405967   -1.66051998518537
H           0.60055372706032   -0.52383852614315   -1.97117585452850
H           0.23107277784164   -1.97961950780088   -1.33694280256859
H           1.41361056682338   -1.86075602742047   -2.46431385943978
