    26
        -50.45292195  Gyration_radius:  2.46272491977 Dipole_moment: 3.152
 S          -1.12608354264936    0.72641438451152   -0.30223986195173
O           0.23647497070033    1.20478782261968   -0.40046522705255
O          -1.56098491480705   -0.01375944339719   -1.44617790606358
O          -1.25522042560663   -0.15329962752248    0.96202772228280
O          -2.06145844032230    1.88552656951630   -0.00693841894816
H          -1.85769586595685    2.19708093180156    0.95963191929480
H          -0.99066831884836   -1.09543507999401    0.70036142770946
O           1.61599805665203   -1.05563389036188   -0.87769484827382
H           1.28978268999652   -0.15236759370086   -0.70755658562578
H           1.46174861785294   -1.17662764752065   -1.84229364318816
O          -1.40854370253971    2.59616062298374    2.31691557575061
H          -1.26549004142018    3.54495682605476    2.36004724736808
H          -0.50342057251439    2.17371043817868    2.40406253314462
O           1.56074934082501   -1.09136053171424    2.04018110236860
H           1.94013219118661   -1.15592734907238    1.15577801617309
H           0.83881052663307   -1.72296213388000    2.07376951330135
O           0.98555592238529    1.61411378075491    2.14445758686418
H           0.91729202495179    1.59216827194207    1.17467913054063
H           1.19884966882752    0.69696372814075    2.39023743439546
O          -0.46228121268916   -2.36506262065870    0.00380713913991
H          -1.03932267613293   -2.43456785647152   -0.76099711663962
H           0.40477782418078   -2.00655261538648   -0.34056768814902
N           0.46236250503959   -1.04080873514173   -3.31857192860491
H          -0.34933650620899   -0.64366819749016   -2.84645366445474
H           0.13815136610624   -1.80062488803469   -3.90455180746606
H           0.82982050444664   -0.32322516630307   -3.93144765192990
