    26
        -50.45088670  Gyration_radius:  2.51042735543 Dipole_moment: 6.656
 S           1.74587995280179   -1.30704508650123    1.30956838053672
O           1.37469082273050    0.06526330100580    0.97226616056339
O           2.69259277166452   -1.43462871080349    2.35384792673581
O           0.47091215726615   -2.09449658692434    1.59922432610899
O           2.30705659585450   -1.96367656630576    0.02697141707077
H           1.68316591224997   -1.77625230117314   -0.72732980080174
H          -0.42610474934972   -1.54129326098820    1.58424193379885
O          -1.12839254023961    2.37742319305691   -0.74035516357593
H          -0.98121404873655    2.19369441963825    0.20679736854717
H          -1.26290756066513    3.32279422879623   -0.82094436291320
O           1.25244437836806    1.17445837257372   -1.46880871916532
H           1.48155957010904    0.90591451194227   -0.55981505068780
H           0.40872695062908    1.65209849598340   -1.37974660578775
O           0.84467408565677   -1.32319411877405   -2.03398941510624
H           0.99400557450213   -0.33569837610797   -1.93714381145108
H           1.36533835355948   -1.60362881461776   -2.78905508773967
O          -0.44741302563148    1.71243474738734    1.83850965292068
H           0.29880902728676    1.13242856419323    1.55178114110759
H          -0.14090290803497    2.18002704184258    2.61679042796503
O          -1.63936164129813   -0.77401950292910    1.51753835373649
H          -1.83048566777149   -0.73579600306392    0.52953285252321
H          -1.41482902430170    0.13464326596203    1.77272604837866
N          -1.92622597915716   -0.53878714231206   -1.09253363484512
H          -1.82559527965436    0.45468597027346   -1.27082797989753
H          -2.76525688696380   -0.86246081681288   -1.55444626119583
H          -1.13116683094183   -1.01488883531482   -1.50480007682910
