    26
        -50.44671639  Gyration_radius:  2.49243849794 Dipole_moment: 3.573
 S          -1.01155099749119    1.29232671336454   -1.02752040242900
O          -1.28034424285818   -0.12672923655854   -0.95746639409663
O          -2.09861386692095    2.10452285183469   -1.44097205101413
O          -0.50214367840763    1.75530618540072    0.38084937158838
O           0.22661386041030    1.53695740255880   -1.88154934901616
H           1.00223647377432    1.01717879411047   -1.43259517909607
H          -1.21890236838104    1.52388601982645    1.06736432832628
O           2.08294330519250    0.37572904768007   -0.64454673376557
H           2.31449494934980    1.08677329252756   -0.01220596455192
H           1.75457258056742   -0.37027881857803   -0.09676060164133
O          -1.46814162615808   -1.41469163399749    1.38879511701680
H          -1.50876581410747   -1.11235353156787    0.46267810678349
H          -0.52553132545778   -1.57195046041738    1.54025798853634
O          -2.30416571748122    0.98613498122507    1.98257164583478
H          -3.15419647180356    1.06117595576147    1.54288226771402
H          -2.05131435306664    0.02242617308403    1.95372383328201
O           2.09776942078147    2.49826617473014    1.01992280132790
H           1.13707224078349    2.36874509775409    1.00964480821483
H           2.26469389998332    3.35229296608801    0.61689181464419
O           1.25120730267748   -1.79347172595867    0.75918371455129
H           0.86701581617505   -2.18079807717169   -0.07873306828986
H           1.97694847471949   -2.36095193934031    1.02312768883367
N           0.18537447257712   -2.52883300817340   -1.56317218464660
H          -0.39603424779969   -3.34994195411700   -1.67369817837286
H           0.78620970179775   -2.45765078838426   -2.37474634594297
H          -0.42744779887657   -1.71407047168470   -1.56392700378817
