    26
        -50.44982187  Gyration_radius:  2.46810954633 Dipole_moment: 4.195
 S          -1.04624021762299    1.36706092980447   -1.22925596248983
O          -1.20737134175510   -0.07256921186310   -1.25797447990649
O          -2.19584738862375    2.12375109982587   -1.57082141272616
O          -0.57350211409080    1.74074208518575    0.22330319284945
O           0.16489696319555    1.77306616634657   -2.04787785208559
H           0.94044739333674    1.13861874467108   -1.75724145284709
H          -1.18290365068746    1.31043367779491    0.88609990986604
O           0.64741538007275    1.42967587569828    2.74379051508375
H           0.57164730736697    2.09110122731026    2.04788160373449
H          -0.25615042709334    1.14347636456326    2.92827515284265
O          -0.89363089607317   -1.60646499616668    0.90417644476592
H          -1.05554573479526   -1.20491681391292    0.02813237865947
H           0.05305963084071   -1.46640618921100    1.07126343385297
O          -1.95664695383766    0.47261550991404    2.01852152473970
H          -2.90294896574825    0.47233320925110    1.86546635942578
H          -1.61811912141202   -0.42530900930126    1.71953629122439
O           1.91562840164933    0.13944739593267   -1.31473385048392
H           1.82112178302148   -0.04975053828262   -0.36199714518470
H           1.59694276232622   -0.67936155621161   -1.77835105418333
O           1.64339820588050   -0.59053148993802    1.32608979660005
H           1.33170691242722    0.16274824553909    1.88576632047748
H           2.44520753776378   -0.92041857284788    1.73439639617310
N           0.65588158198567   -1.94622780338071   -2.43022386986580
H           0.69470128371105   -2.08770224419017   -3.43120787739493
H          -0.21234631045292   -1.45973915137418   -2.21570240734199
H           0.61919796861492   -2.85567294515706   -1.98731195578723
