    26
        -50.46458866  Gyration_radius:  2.43067117914 Dipole_moment: 7.122
 S          -0.97488979320437    1.14585857095153   -0.20380388210961
O           0.08515495723247    1.47203591149829    0.75252491562209
O          -1.38037254065906    2.26312331319569   -1.00681901060553
O          -0.55753168114121   -0.00918578736024   -1.03223106622039
O          -2.16250655499004    0.64333889462048    0.67136296335249
H          -2.54984217706671   -0.15740503307661    0.21767138290767
H           0.78402525247851   -0.56877985449503   -0.63663148113524
O          -1.15847528972724   -2.64648591667778    1.41154895908788
H          -1.72331128576522   -2.86325455802702    2.15521152216822
H          -0.59256750418782   -1.90594520611497    1.70076324594668
O           0.84897833038981    2.11763576972442   -2.44211680607119
H           0.02802841138234    2.33849195644769   -1.95599468998909
H           0.60171915509161    1.40014237225174   -3.02853896540127
O          -2.67459335351802   -1.55422445972602   -0.58067116879605
H          -2.22203245010735   -2.13023937372990    0.06655295334028
H          -1.96579227568353   -1.22327603587609   -1.15323959855248
O           2.50532291832765    1.69212284234417   -0.37849457301427
H           1.77021605410338    1.89979792972035    0.22830711514822
H           2.14445055595586    1.96098760307240   -1.24952811553908
O           0.49871013397705   -0.60175783273753    2.19427445468145
H           0.55622621613088   -0.33961837805239    3.11441749142654
H           0.26766669547930    0.22991553682873    1.69025418272377
N           1.76151906753096   -0.78523678850895   -0.23808986096245
H           1.61771847523360   -1.00928369476764    0.75454832514593
H           2.26706582910124    0.16801154812980   -0.31558590254153
H           2.22511284367271   -1.53676932960512   -0.73569237058745
