    26
        -50.45061030  Gyration_radius:  2.56515896295 Dipole_moment: 6.154
 S           1.02794676629520    0.49328416974413   -1.91812875728252
O          -0.32388055568408    0.98580517312553   -1.75172153670425
O           1.64213699991401    0.72882231013419   -3.17006328295572
O           1.87192651518580    1.10346443300797   -0.74532123249061
O           1.07292427366218   -1.00219626147350   -1.58825206161861
H           0.61458614314415   -1.19015712413806   -0.68211273984577
H           1.46608680358626    2.02005191340767   -0.59055381688647
O           1.46044816005651    0.31833892833607    1.91955494655504
H           1.95034140568293    0.56138900164743    1.12205136204387
H           0.99833467474753   -0.50417868047126    1.69284364451899
O          -1.91403500220089    0.36248004549286    0.31692664333482
H          -1.52726598458267    0.62573065980492   -0.53949198673501
H          -1.64383985658862    1.05009123213061    0.94535268277273
O          -0.46023372485855    2.13058070038622    1.91436574725562
H          -0.52556912755343    2.58161111622398    2.75684760580011
H           0.27259208432797    1.46484819301222    2.00657483093001
O           0.45818979179581    3.18263540057392   -0.40707856714318
H           0.06994604532075    2.97795480108393    0.46955438182940
H          -0.15085116457044    2.80782833466916   -1.05971823692979
O          -0.10850161750165   -1.49790901732583    0.58901088128157
H          -0.88205582236184   -0.86686918870750    0.56028736803179
H          -0.47999613535299   -2.38730742024990    0.36597160884774
N          -1.13043510625501   -3.78470353594828   -0.39939736056264
H          -0.64910795731951   -3.81251174431173   -1.29024144459172
H          -2.12044381059648   -3.67585473770694   -0.58127491758642
H          -0.98924379828953   -4.67322870244285    0.06401421813190
