    26
        -50.45017782  Gyration_radius:  2.53811834242 Dipole_moment: 5.728
 S           0.32859705822791    0.34898243078943   -2.13157918464710
O           1.03002227305289    0.48880242546440   -0.87047015594455
O           1.01929019509423   -0.35845377003515   -3.15078398115283
O          -1.02736083526039   -0.32849973600985   -1.88433102677073
O          -0.05022754917928    1.76524478429269   -2.62209420103563
H          -0.09796307213263    2.35169715753258   -1.81531889618897
H          -1.31426258913469   -0.42145572043596   -0.89181419521767
O          -1.27436852116587    1.80102058953705    1.81217667908415
H          -0.56851485287286    1.35738735924181    2.33647874823440
H          -1.81779400305891    2.28789930733333    2.43343768570242
O           0.49552369314678    0.26952484544236    3.12295850059525
H           0.25859484330825   -0.26004570861190    3.88611623415638
H           0.79813397109730   -0.35544225555463    2.44151596096165
O           0.88078458969166   -1.39493859167271    0.96950498609662
H           1.12892297990651   -0.65021810359098    0.38604551875202
H           0.91829980936248   -2.15403757745126    0.34638010675347
O           0.11560245567701    2.91829370783999   -0.30719399498603
H          -0.53123987662088    2.67708491050122    0.37818630940222
H           0.82629803079063    2.26777318647533   -0.20850653095882
O          -1.62318302443494   -0.59927180618843    0.54050077126216
H          -0.76952871256914   -1.00120444343557    0.83385469327547
H          -1.65522624395563    0.28809783911310    0.94064705196323
N           0.77414996079484   -2.76456993193545   -1.36113163027448
H           1.02905158431548   -1.99086545774461   -1.97069183812159
H          -0.19641654122669   -2.97620588290528   -1.56407818640765
H           1.32281436714922   -3.56659954799471   -1.64980942452964
