    26
        -50.45072014  Gyration_radius:  2.45512837125 Dipole_moment: 6.281
 S           1.46683564404627   -0.33046826721351    1.73307478517365
O           1.70409729334278   -1.23885419673673    0.62866104953882
O           2.40436975130947   -0.34811782043995    2.79241802819439
O           1.33150587030791    1.09705554837876    1.13586212970302
O           0.05580406458694   -0.57481867613701    2.30253336475961
H          -0.61737598169099   -0.87500451009792    1.58282390755588
H           1.74649836544960    1.07048263729005    0.17259423499121
O          -2.20280579620829    1.22543161457965   -0.41957076823570
H          -1.81249561813327    1.64607648634328    0.38575245593918
H          -3.10834306406214    1.53529198762321   -0.47012781813054
O          -1.11594712164941    2.05209919696021    1.85860059594706
H          -1.29617737117681    1.40210036903540    2.54412576647323
H          -0.17332988425658    1.94425119670071    1.64969413481798
O          -1.61414201910360   -1.23664707009282    0.52326515256999
H          -1.10936477671810   -1.72257946035420   -0.16000585013058
H          -1.89986068913215   -0.39426750270404    0.11192645081505
O           2.24543807919862    0.77620937974951   -1.14727763899765
H           2.53472819455463   -0.12566727259600   -0.96522498999660
H           1.38900439431220    0.68597380380881   -1.68352128380791
O           0.15108610156697   -2.38598479197417   -1.15662652784237
H           0.80687476459780   -1.99674970154996   -0.53432972029638
H           0.28490988228257   -3.33455625254779   -1.12426034363308
N          -0.05100726283996    0.35990472852344   -2.35008839840977
H          -0.79617820355718    0.78797768686381   -1.80924067963246
H          -0.15404081281849   -0.64733670238234   -2.28328568759579
H          -0.17008377420278    0.62819757897028   -3.31777238977233
