    26
        -50.45043504  Gyration_radius:  2.52513838031 Dipole_moment: 7.529
 S           1.78357909379401    1.88077346427637   -0.34622412220466
O           1.35554689150807    0.68076422357390   -1.03659458884428
O           2.64085315793553    2.75670496460267   -1.04944271758695
O           0.51306053870158    2.63101490183102    0.13332858365119
O           2.45911899048942    1.46465683759842    0.98135700102961
H           1.91996590730955    0.74653552432314    1.42112043103752
H          -0.34181511956102    2.16293815999325   -0.11167188025981
O          -1.10453385698875   -2.33475458766904   -1.00476073206496
H          -1.24547933687650   -3.07307453178801   -1.59853191989116
H          -1.07047679961912   -1.52211758690794   -1.57757936389521
O          -1.77403271986704    1.54998395536100   -0.32586328314095
H          -1.77285561565021    0.74847388118797    0.31188480818406
H          -2.40549765084608    2.18387657532345    0.01805698791592
O           1.20111534577797   -0.52146638891664    2.08135002345226
H           1.81165265922124   -0.85414547852313    2.74191844790424
H           1.29068799028117   -1.13250465422910    1.28074933557589
O          -0.86996643249238   -0.09350667114980   -2.37869274981527
H          -1.44310742728505    0.54227351307579   -1.93061053411986
H           0.02695338413639    0.16504967422207   -2.10502872605735
O           1.42352196341170   -1.85132078893630   -0.10815909655147
H           1.56473639299223   -1.03054016543515   -0.61314050592551
H           0.53913892999373   -2.16507935690067   -0.38487701139692
N          -1.67670120206202   -0.50459474714492    1.26339656927217
H          -0.79735038062949   -0.44128606483445    1.76728029177411
H          -1.61386075319025   -1.30404897285430    0.63886979340151
H          -2.41425396048467   -0.68460569007576    1.93186494857596
