    26
        -50.45652784  Gyration_radius:  2.46371133324 Dipole_moment: 4.630
 S           0.92174245564403   -1.14161268686541    1.16599976953447
O           0.74253981015020    0.22487683284137    1.63478717357523
O           0.72525222651636   -2.15396571869924    2.14235514247496
O          -0.06003697265433   -1.37498164742695   -0.00442659722191
O           2.30190929651324   -1.27300086802438    0.53359442407127
H           2.42377781258139   -0.54222815032963   -0.19878050271067
H          -0.50621076852706   -0.52564117435876   -0.38004017541014
O          -1.50731736558753   -0.64633194638191    2.82338943376072
H          -1.14977551649205   -1.54140189162673    2.83688324244097
H          -0.72975622306266   -0.09338822824481    2.65739491407033
O          -3.10268745990701    0.43680881800682    0.94198305472879
H          -3.82106937393165   -0.17529189759389    0.77599578505213
H          -2.59283194717397    0.06299955995205    1.69322324211975
O          -1.22390080895040    0.68743946611955   -0.90076740706159
H          -1.99378497974681    0.69528926451330   -0.28055515316641
H          -0.65739125697241    1.43793968782596   -0.65155003353679
O           0.77663678839121    2.28980577749619    0.06150394584810
H           0.79679812383303    1.58298669280927    0.75103559454054
H           0.90759303455316    3.12256794020933    0.51705421604879
O           2.40976641601410    0.48764381566098   -1.25389597280329
H           1.81447836996745    0.10371535521714   -1.95578804389180
H           1.94825992986123    1.27082850248572   -0.90984061707643
N           0.61067219827830   -0.60860228726013   -2.89754988685000
H           0.70900367565648   -0.70241975899689   -3.90011359911294
H          -0.23993528261387   -0.09157985006505   -2.70361312597482
H           0.49626780765604   -1.53245558727898   -2.49827882341515
