    26
        -50.45641794  Gyration_radius:  2.42825888455 Dipole_moment: 3.635
 S          -0.09260739394255    1.03825378303993   -1.54907336558379
O          -1.05163952734566    2.04525167020330   -1.16540408039088
O           0.53943805721438    1.16216024433333   -2.81355060024247
O           1.01449735969774    0.98486798939702   -0.46869571090253
O          -0.77201300363731   -0.34413968266126   -1.49096900820119
H          -1.36445247541525   -0.49821625321588   -0.67243008822545
H           0.69952830434247    1.21392712415505    0.47470261859537
O           0.23100248705908    1.37329279062555    1.92241623139910
H           0.18619630793925    0.43819685521123    2.19724512984291
H          -0.68600719180328    1.69272934063843    1.85379563808629
O          -2.11990436110717   -0.72893984248740    0.62262998153245
H          -2.37168085915970    0.15920283893200    0.93115394709031
H          -1.40499361456835   -1.04730616444025    1.20949012707080
O           0.10204636797833   -1.33271936184824    2.03572389391806
H           0.21697044067923   -2.03264867269812    2.67962222748421
H           0.85405026289577   -1.43577813519234    1.38043430225536
O          -2.29304535574088    1.94556848876425    1.10779784253547
H          -1.88194443203776    2.06394857247906    0.21277734504011
H          -2.96083765435238    2.62792608566306    1.18919550511223
O           2.14060751750346   -1.45622782372895    0.41810374174791
H           2.49422528365740   -0.56538863715766    0.48461441449900
H           1.94996314880685   -1.56447494017734   -0.55316068284074
N           1.71635953463357   -1.46588439996563   -2.23395117279758
H           1.47832611011465   -0.50271359916811   -2.45630208330438
H           0.90320166926713   -2.02148327226675   -2.47047151557300
H           2.47271299730484   -1.74940501843700   -2.84569465812555
