    26
        -50.45123055  Gyration_radius:  2.47057497761 Dipole_moment: 4.664
 S          -1.92861700843390   -1.39281786420354    0.29658857923095
O          -0.49664147844470   -1.59330558433124    0.31974837530172
O          -2.71150274587573   -2.39098140773881    0.92472233519686
O          -2.21989175957492    0.01536923407726    0.89714749960112
O          -2.38336383722386   -1.19779207485867   -1.16070401433240
H          -1.92238416433189   -0.36013141211557   -1.47041884492583
H          -1.50706902415077    0.30704799088361    1.53561497730388
O          -0.36905841089227    0.83888095086800    2.50375230741759
H          -0.61523263121020    0.73930424326742    3.42454720471406
H           0.42492418856055    0.23435580812937    2.34712199192156
O           2.54400554705415    0.64273724710938   -0.27953264247365
H           3.37929294318307    0.91738058205376   -0.65822772901897
H           2.09263458387605    0.04765517039736   -0.95282268144928
O           0.23526539086612    2.07918182220051    0.02872672231766
H           1.11982577299347    1.67558456102345   -0.05512397703748
H          -0.05826591391450    1.88675668151095    0.92753681447392
O          -1.24574114771788    1.00053589109821   -1.84752690476855
H          -1.95363970226237    1.63053778394507   -1.99679453326716
H          -0.68363952051083    1.39570215860349   -1.12204788666165
O           1.54464496491262   -0.76424847446409    1.86993495798706
H           0.93087225436243   -1.30604418719995    1.34393418999246
H           2.07553859390618   -0.27782141092597    1.21530625884803
N           1.14705203208556   -0.88414614149858   -1.91737572198863
H           0.53311146228611   -0.30887484273953   -2.48251476607239
H           0.56589389718456   -1.30350377035366   -1.19146475477091
H           1.50198572327204   -1.63136294473752   -2.50012774753986
