    26
        -50.45095416  Gyration_radius:  2.41503904637 Dipole_moment: 5.070
 S           0.57397485896107   -1.70197808313185   -0.90457712494091
O           1.36004787357829   -0.74138865582916   -0.14376357100796
O           1.32337768701621   -2.74544870204815   -1.49993176142013
O          -0.49712679350091   -2.26347418108570    0.09176164515741
O          -0.26112544407390   -0.97678152043973   -1.93547977844032
H          -0.96483347902931   -0.27507495501172   -1.51850908492607
H          -0.01108920078322   -2.36808461770894    0.95516475885405
O          -2.41400812070252   -0.55522212495278    1.31568438824880
H          -2.20725269539516   -1.46631641503115    1.08575564162002
H          -1.59633882236976   -0.17970262154571    1.70233315644231
O          -0.28113659233984    2.63048027881250   -0.04303953931488
H           0.45865849814969    2.35600196013952   -0.65788682077640
H          -0.51767609813616    3.52990171858288   -0.27260413134025
O           0.92422908264513   -2.13275959438953    2.25533547859034
H           1.76921190819177   -1.95428347886675    1.82995564558600
H           0.61386414585703   -1.28071219310716    2.59426889793473
O          -1.85863584505567    0.64361813281790   -0.95882191357046
H          -1.34572051710920    1.41407310740894   -0.62528736508757
H          -2.24500138466241    0.21113362149440   -0.15264728034043
O           0.03801303870044    0.51199042227091    1.78734577036961
H           0.56878573418271    0.12065152933540    1.06215459276333
H          -0.09050379393382    1.43114853783872    1.51990484447400
N           1.51205538600769    1.63150609108502   -1.72805512712994
H           1.66046017163695    0.76443380987552   -1.21269503719451
H           2.42087619144086    2.02123292870407   -1.94497684457394
H           1.06689420597443    1.37505498568070   -2.60138943735843
