    26
        -50.45390806  Gyration_radius:  2.502235451 Dipole_moment: 2.138
 S          -0.46350325707517    0.36829993696811   -1.66951740552219
O           0.59376267927117   -0.37979571605841   -1.04680593562772
O          -1.64613022149769   -0.38787105596161   -1.95959197222894
O          -0.82355730009871    1.56299772168211   -0.75416989480336
O           0.04391677192343    1.05892010725211   -2.93281936135235
H           0.97239419293788    1.40294669095875   -2.70802778428439
H          -1.15647320708663    1.18620893537244    0.18945276255641
O          -2.32581415022632   -1.69991474891524    0.23337198901353
H          -2.05666848151230   -1.33209844309173   -0.63740879777491
H          -3.26678960121296   -1.87440947444380    0.16256419262707
O          -1.40541458716278    0.54279876668473    1.42549928278608
H          -0.47046191435047    0.29839099471421    1.67651953914588
H          -1.83307804886668   -0.29996754636946    1.16730726851912
O           1.08682583119437   -0.23976050531909    1.55764255369753
H           0.91264455291280   -1.14804308200298    1.88971466062852
H           1.07715745211744   -0.35175887054166    0.58588895637671
O           2.29551259103460    1.99810350026277   -2.19634311952676
H           2.42781948763459    2.89211518290402   -2.52099039162314
H           2.19870581778095    2.06996649783027   -1.21248289889101
O           1.64587227845931    2.31198908685095    0.34779097249297
H           1.76375134448876    1.56795937566774    0.95259167363832
H           0.70364682489067    2.32696188383331    0.12990495297611
N           0.06990532950913   -2.73684425658113    1.88626368166511
H          -0.25087733747391   -3.17936317169653    2.73844404087768
H           0.65025120364535   -3.40217369215916    1.39060351672222
H          -0.74339825125543   -2.55565814785641    1.30459751786904
