    26
        -50.44665753  Gyration_radius:  2.48405979331 Dipole_moment: 4.022
 S           1.35326035575868   -0.09426594522366    1.66969687702705
O           1.18887055643841   -0.90535605269891    0.48440992496449
O           2.61215955773070   -0.15154990509353    2.31310908231558
O           0.96325025036997    1.36636178654912    1.30972686134551
O           0.23398062704305   -0.46092404226093    2.66911429526361
H          -0.62280154524432   -0.53897531310839    2.15977725561158
H           1.45789188588898    1.64428737223898    0.45141540768533
O           0.56900749153145   -0.83629166569841   -2.13811866702157
H           0.81125655338975   -0.83362920887606   -1.19154562387459
H           1.40001320102950   -0.82886960759293   -2.61648811628650
O          -1.98219969486765   -0.77742687817476    1.35159739535571
H          -1.69821291698257   -1.50363265929582    0.70132127862827
H          -2.64375089150207   -1.15973594546141    1.93109674964546
O          -1.59688999772656    1.75146179892240    0.21731900116387
H          -1.95961185232097    0.89765471420275    0.48956005283747
H          -0.80945637838140    1.87544161897965    0.76305006591385
O           1.99300046583781    2.09393924373664   -0.86498652589536
H           2.20989416372671    3.02780061511690   -0.83177193735546
H           1.16318018927504    2.01418275515666   -1.44206952679658
O          -0.22680684272162    1.75904017421313   -2.12905158396036
H          -0.86665415198719    1.83639831137804   -1.39245526638041
H          -0.12787036579407    0.80132264848179   -2.29224174693759
N          -1.03694755967465   -2.61301139129505   -0.24473291329728
H          -0.07847361863221   -2.43076003192939    0.04417899320960
H          -1.10110631940659   -2.32366676013466   -1.21428827839828
H          -1.20498317309939   -3.60979564204999   -0.19762304460383
