    26
        -50.44665753  Gyration_radius:  2.48411175852 Dipole_moment: 4.022
 S          -1.08140758253757    1.50243266604317    1.09609433286384
O          -1.49780809547776    0.39448118763102    0.26617842820432
O          -2.02865368798002    1.99613414518717    2.02403083463692
O           0.24821563381096    1.10537036358732    1.79566045621100
O          -0.60059415798752    2.64592381847765    0.17554105972327
H          -0.03578486093721    2.24616832760886   -0.54603627295064
H           0.13530920410617    0.18034009835827    2.23182590742102
O           2.35829832062411    0.29819974273511    0.12372375222123
H           1.99223004645457    0.66133449078670   -0.69405958300275
H           1.87469503677259    0.74023089829079    0.83357796185580
O           0.77832046658025    1.61847886472931   -1.77148974946637
H           0.08799919705486    0.98307036868262   -2.15943985084032
H           0.94463914788250    2.29305794991660   -2.43247993959481
O          -0.91005573808728   -2.13685345424066   -0.44894965299116
H          -1.11556297985303   -1.22688864662074   -0.15829637697457
H          -1.46750943615389   -2.70890354619003    0.08160011374002
O           1.49781771548909   -2.18827194686187    0.80310912586682
H           0.75141211217000   -2.30476231872312    0.18421771101963
H           1.97157541774430   -1.38826044276952    0.49753673269503
O           0.13479926796533   -1.21337870303823    2.75974016124498
H           0.68095871705098   -1.68424441628861    2.04689504522442
H           0.64864007125437   -1.26042065194409    3.56843098614679
N          -1.12758697725109    0.03242439579366   -2.58597530733166
H          -0.83687518532257   -0.93818074613938   -2.54790613630870
H          -1.72229213855766    0.15544256195776   -3.39551519060837
H          -1.68077949458041    0.19707498316299   -1.74801455880984
