    26
        -50.45091386  Gyration_radius:  2.4440136235 Dipole_moment: 3.979
 S           0.51793081140353    0.68967468671569   -1.37982633430463
O          -0.53435611193544    1.63807820632831   -1.67527298745994
O           1.64754176115351    0.69975603925087   -2.24337688907481
O           0.97129959634059    0.91739951755748    0.08250400150612
O          -0.08967697038292   -0.71784157573938   -1.36395094208916
H          -0.35972847350580   -1.04556582012546   -0.38747993387232
H           0.39209761092349    1.63299655946676    0.50580121294636
O          -0.70570221861868   -1.42593630802843    0.93295088945255
H           0.18207005234847   -1.41383001813426    1.38525157397283
H          -1.23821769819430   -0.69877615471660    1.30194797278699
O          -2.49054993055810    0.62160470990275    1.33550381065372
H          -3.31368383106727    0.58016227961978    1.82418737968185
H          -2.72151463665888    0.50637975643211    0.37564114707213
O          -2.79957922959011    0.32467584655778   -1.25872662861237
H          -2.57389442303196   -0.56252670079290   -1.54995732629737
H          -2.05072691393367    0.88762607577456   -1.54715691619585
O          -0.74219683788204    2.63995013072079    0.82941882431202
H          -0.94274278097631    2.75963627534038   -0.11053945580831
H          -1.43108371320896    2.04519721076454    1.18315612556758
O           1.73992339919858   -1.49654755068366    1.85302627850158
H           2.02054827734376   -2.37794810872673    2.10619503287583
H           2.20941105071895   -1.28920702404723    1.00180323558719
N           2.96580097259063   -1.25789764710659   -0.54167135265870
H           2.87278686665614   -2.10552027738029   -1.08951068603167
H           3.95339055677644   -1.03600389861714   -0.49366869328579
H           2.52085281409304   -0.51553621024656   -1.07624934880108
