    26
        -50.44577856  Gyration_radius:  2.50811830938 Dipole_moment: 8.319
 S          -0.78784111742796   -2.36618073525750    0.04858703571893
O          -1.94366022184662   -1.61103369341708   -0.36708514022401
O          -0.76999896773065   -3.75323336605169   -0.22746608940231
O           0.45995192458714   -1.65554383531435   -0.54827528846539
O          -0.56065020657637   -2.16247486831000    1.57284060817737
H          -0.56818404802403   -1.19739440896670    1.78290050384486
H           0.09780931993032   -1.08159837534965   -1.34256526771483
O          -2.59490646721752    0.86844372530301    0.49478648768284
H          -2.14439983324618    0.83700421507884    1.34601337464485
H          -2.54942807222238   -0.04110984317681    0.14878020165121
O          -0.43760724707811    0.37874317896127    2.26914382874237
H           0.22467583853371    0.87490626371092    1.73818204830865
H          -0.12664395884437    0.38142795966870    3.17639698542465
O          -0.55501660271710   -0.26675585845732   -2.35369024601466
H          -1.45131358776600   -0.60792864491450   -2.25249378435051
H          -0.57981655860917    0.65970865240907   -1.96314325097069
O          -0.71955504910920    1.98038909659145   -1.05995260600485
H           0.00893644322930    2.00919644280157   -0.42122030480725
H          -1.51689489195818    1.73467220461213   -0.53820195554695
O           1.35778436928968    1.73725668584592    0.81257677219461
H           1.92743749280494    1.13113267568828    0.24756152444898
H           1.89368335855704    2.49740085853165    1.04187357069588
N           2.75583863119637    0.11306721914331   -0.72832251427224
H           2.19037039291086   -0.72482671285027   -0.61715085525304
H           3.72320192018234   -0.13653901165102   -0.56463094740737
H           2.66622714915137    0.40127017536591   -1.69544470111058
