    26
        -50.45206899  Gyration_radius:  2.45023137015 Dipole_moment: 8.374
 S          -0.19031941954690    0.52636773891616   -2.12630571014256
O          -1.18400946402386    0.78295672538913   -1.08294701317667
O          -0.30116238301937    1.34852223112059   -3.28129278221669
O           1.22025273069183    0.79227193679616   -1.41849295079626
O          -0.12315541126029   -0.92345405618039   -2.40539866542360
H           0.87182120108306   -1.47041992768629   -1.57542909479837
H           1.09691896777787    1.59165484508535   -0.86170627920431
O           0.13871917837168    0.90843774127222    2.32414226658129
H           0.10266874941103    1.15291928031829    3.25019091763948
H          -0.80098952712976    0.98293806729374    1.98361402383398
O          -2.26358288271095    1.06050562001685    1.32942591281877
H          -2.66707314063926    0.18787240112247    1.28413194429457
H          -1.97200130798691    1.23991465272809    0.41498602760306
O          -1.82825489898866   -1.53777349600524   -0.12302680391914
H          -1.84272217901826   -2.14943945581074   -0.86117285553666
H          -1.60547007948890   -0.66295437088770   -0.53562228765236
O           1.09692415648003    2.65312861242685    0.44407686031741
H           0.75831172833036    2.06442641452307    1.14802125398338
H           1.97339697907822    2.93651909912909    0.71001602413430
O           0.35011963800612   -1.67732392980495    1.39264824462507
H          -0.53451278969423   -1.72371329337221    0.95716446958112
H           0.39345639257425   -0.78316120386296    1.77745650850204
N           1.66919531453921   -1.78224346485892   -0.85713144216738
H           1.21492999696178   -1.77935115784552    0.11840957181806
H           2.37118022257056   -1.04859596930874   -0.91344218316962
H           2.05535820765863   -2.69000503054010   -1.09231597749234
