    26
        -50.44667601  Gyration_radius:  2.49788675617 Dipole_moment: 4.877
 S           1.08125462019662   -1.72286380456137   -1.16540934798853
O           0.30341304148381   -1.56147245947620    0.04906457951061
O           0.92178523876289   -2.96891660084208   -1.82215185842919
O           0.72847567005237   -0.53898085114444   -2.11366136735719
O           2.55020842621140   -1.44128461494983   -0.86125701444883
H           2.56018073526089   -0.46277056680284   -0.56478515193551
H          -0.24776441836499   -0.30271160352241   -2.07931654314498
O          -1.38884552104872    0.97976061625937    2.25860747658065
H          -0.58858560550173    0.43460806491870    2.43885327034220
H          -1.74748578563230    1.23248508339055    3.11007114638424
O          -1.76545154991175    0.09910206843846   -1.99298925887047
H          -2.06108061914884   -0.22072141509878   -1.08685695692813
H          -2.26259891155796   -0.41329885654126   -2.63319895597287
O          -2.26238121233436   -0.83431065618961    0.37079781486306
H          -1.40796273579446   -1.30182589741640    0.35278633068037
H          -2.14701530407717   -0.13842531806340    1.04202605713256
O           0.71583834807849   -0.64818977212798    2.51797051545640
H           0.72987171460744   -1.44243707869911    3.05457357181614
H           0.68564737702154   -0.95299676364184    1.58895327139160
O           2.43948285893583    1.02373553445180   -0.31420237828370
H           1.48560486783809    1.34634093245715   -0.22132367917357
H           2.77597641267336    1.43193980223698   -1.11476314973251
N          -0.01695538037464    2.00216498983443   -0.21480545933260
H          -0.02220204190759    3.01344158767450   -0.26482283834228
H          -0.48253172642767    1.73749254376095    0.64847253811160
H          -0.57687850903919    1.65013503564529   -0.98263260232962
