    26
        -50.45373402  Gyration_radius:  2.43836396696 Dipole_moment: 5.450
 S          -1.51428526071171    0.72736847968539   -1.10178279499965
O          -1.61795430712645   -0.44970360206877   -0.25001409236750
O          -2.66017322718773    1.56922886033592   -1.06698327228192
O          -0.26373627646661    1.53149756559454   -0.64637485654889
O          -1.14530491196007    0.29037913291402   -2.50025631206088
H          -0.24941253787305   -0.29095481868215   -2.45290877949117
H          -0.60089859858114    2.11209248571961    0.12290588524480
O           0.92536846565476   -1.06743451417813   -2.25078929827175
H           0.67878935835607   -1.77735931715127   -1.63446605225345
H           1.56839974098676   -0.49348011522229   -1.72921964312263
O          -1.09920640366176    0.26906030721133    2.29431024497827
H          -1.45331248191636   -0.09669120253463    1.46522614493618
H          -0.16733249657880   -0.00261574058202    2.30080930822404
O          -0.02718257369756   -2.49297565829184   -0.08730544229733
H          -0.67823637350851   -1.75050489749236   -0.14558560033457
H          -0.54408961002946   -3.29529752794662    0.00268306056786
O          -1.42681581900752    2.68158122306621    1.26785823150170
H          -2.28964308160206    2.64234185221354    0.83871033937421
H          -1.36578206355233    1.89880411835983    1.87052605038499
O           1.35429259988419   -1.04562005058628    1.81346416384824
H           0.92983423704477   -1.62571697429147    1.15363075793011
H           1.65708535094129   -1.61230601310671    2.52496183873728
N           2.42300235799688    0.39679536735345   -0.64247052852524
H           1.85833391200924    1.23849560639212   -0.65954131691240
H           3.39299646095502    0.65429438503585   -0.76856834557016
H           2.31526356963081   -0.01127894173115    0.28118031932648
