    26
        -50.46044979  Gyration_radius:  2.45569582868 Dipole_moment: 6.759
 S          -0.43395226527160    1.01269296770501   -1.10824667761564
O          -1.29794306804317    0.10335924341576   -0.35492010413232
O          -0.37037645858299    2.32922710428804   -0.54243799467117
O           1.00846548227908    0.36453650762108   -1.06769002989228
O          -0.75353178924577    0.98094583059562   -2.53749297422522
H          -0.30928774211476   -0.30241233612882   -2.90252931612335
H           1.16171800230894   -0.12803948612822   -0.21588466435283
O           0.43632564654577    0.25782211417286    2.88015347181455
H           0.76001315567909    1.12627584119184    2.55808533286911
H          -0.53462304556316    0.30515779982671    2.76860081177823
O          -2.14599349265525    0.49268151307036    2.13362370422115
H          -2.81502979306866   -0.18409468764845    2.24645800494338
H          -1.88786099730354    0.46381930118890    1.18915842176607
O          -0.41404460298156   -2.30615889131086   -0.69247875630036
H           0.32875554471962   -2.26374472213487   -0.07186523575997
H          -0.92351570131321   -1.48288415237494   -0.49020270725414
O           1.11542660809359    2.54027593684057    1.63087315512262
H           0.82050386661426    3.35065858346824    2.04987181387106
H           0.60001260003967    2.47716030674882    0.79631049290786
O           1.45754308391547   -1.14105745884106    1.00310542784098
H           2.39521354952773   -1.12058440074286    1.20146852413720
H           1.01283884459821   -0.66057662067165    1.78310262482085
N           0.10509102364939   -1.33115437274669   -3.06038428078224
H          -0.05981127141219   -1.84899308458415   -2.12949623516875
H           1.10145718551034   -1.23717127712427   -3.23293526864574
H          -0.35739434594793   -1.79774156970404   -3.83424753116075
