    26
        -50.45360850  Gyration_radius:  2.44567272174 Dipole_moment: 3.754
 S          -0.30053063513013   -0.25744138823234   -1.80390307809734
O           0.23640234279826   -0.97500503430208   -0.65966358573211
O          -1.43075203758379   -0.86185240204482   -2.41966874012730
O          -0.61549420954006    1.17737481580694   -1.38582071036390
O           0.83049441996563   -0.10206748204006   -2.83815969999668
H           1.62843788575792    0.16301912423512   -2.30777394811355
H          -0.56104849116636    1.38629719468614   -0.34915579453025
O           2.20591168606064    1.10028090110795    1.36616463870243
H           2.06404671006013    0.13830694550965    1.56927905569531
H           2.85121128886580    1.43333012583024    1.99114045851952
O           1.63135160749972   -1.45213232707683    1.59041881447337
H           1.23367071752417   -1.45826580034862    0.70124175787575
H           0.89534252734638   -1.61040482033922    2.18953431718807
O          -0.46209327764983    1.59503784902978    1.06265849064470
H           0.49635221131596    1.56549382107167    1.23643468199364
H          -0.84280791622871    0.74203318593118    1.40758402399394
O           2.80171191411333    0.38470788244249   -1.21345648349178
H           3.08936025239668   -0.50388703797988   -0.98849416080047
H           2.55301586509297    0.80863968081369   -0.36908413406348
O          -1.38506654004672   -0.82287353176216    1.49533036165917
H          -2.27365067865984   -0.68660138133860    1.09646577509408
H          -0.84906331028566   -1.10053979530301    0.73280479064670
N          -3.32730734334399   -0.24095444216676   -0.28344842081351
H          -4.25094092117444   -0.64805476407895   -0.36976155024817
H          -2.78661620374572   -0.53876862506311   -1.09395096498240
H          -3.43193786425089    0.76432730561795   -0.35671588512958
