    26
        -50.44858714  Gyration_radius:  2.48076309026 Dipole_moment: 6.022
 S           1.11701832629987   -2.09930232971498   -0.67766996682543
O          -0.07486773787987   -1.38954039884207   -1.11149440686770
O           1.47776253830398   -3.22463658769049   -1.45456003283506
O           2.27408245112040   -1.08664951507155   -0.57497165105760
O           0.89572906881160   -2.53176407685546    0.79028982039330
H           0.79230990042597   -1.67140293380952    1.28166043279742
H           2.04509560862821   -0.12928549241223   -0.84755327840170
O           1.71036447034944    1.31939396736479   -1.17837284195400
H           1.57612095724063    1.82496811796793   -0.35249084540523
H           0.84588869832557    1.31480864189637   -1.62771698015343
O          -0.84012517722006    0.92075790790151   -2.05371079238056
H          -1.21741680000562    0.85042890393897   -2.93150961680875
H          -0.62199328391218    0.00374482766007   -1.76796062127757
O           0.63297243302202   -0.18292227696224    1.80572977874795
H           1.38742531096792    0.41130017003183    1.76016182243727
H          -0.12372397969887    0.30508886669525    1.42143324941226
O           0.93057748633157    2.61800712977378    1.08624410377955
H           0.00035753301007    2.32842220533297    1.06704179556594
H           0.92691214024411    3.57187067658788    1.17129016901245
O          -1.42141533376183    1.27236024360166    0.65385957237753
H          -1.33667519166699    1.31283933979538   -0.31127739390586
H          -1.94503184714195    0.45075537060375    0.81433962290459
N          -2.27724453562866   -1.27184408611251    0.79620245137684
H          -1.59649248707242   -1.51320902839457    0.07695571643384
H          -3.16967999847208   -1.66126104456616    0.51914194815270
H          -1.98795054074911   -1.74292859170977    1.64493791515044
