    26
        -50.44519929  Gyration_radius:  2.63609768066 Dipole_moment: 4.794
 S           0.12438634490416    0.86418528721705   -2.35852445084922
O           0.34419056256000   -0.15803195204033   -1.34113373380587
O          -0.25027191776951    0.35992031196726   -3.62681091537082
O          -0.91791738774931    1.86121682202042   -1.78799187484726
O           1.38031566032428    1.72773362857589   -2.48361854641353
H           1.53831872939739    2.21849195607126   -1.60517798098499
H          -1.52800666459014    1.35014921865540   -1.18100908006914
O          -1.02005156487640    0.32716022091601    2.32198521752015
H          -1.27824471115556    0.58681743096232    3.20673303556264
H          -1.11566449314137   -0.66140446364528    2.27274044020323
O          -2.06993571632846    0.20671585700455   -0.20021367833065
H          -1.84449226512609    0.44954750316920    0.71741739892186
H          -1.33886039011276   -0.35301189794594   -0.50182388229113
O          -1.37566623379474   -2.23846875604072    1.87699644760626
H          -2.20016277261347   -2.32058979401955    1.39308881628322
H          -0.65501650594881   -2.47726850990641    1.23354740934388
O           1.83463042604575    2.82313503847929   -0.22834236122590
H           1.69620543726378    2.03886111416452    0.37407196777590
H           2.76569742340180    3.04895528459423   -0.17425891965009
O           1.39827042394293    0.58376464944408    1.02335231540723
H           0.61542874852413    0.57480356347479    1.60117074011589
H           1.10126747929680    0.18070176271680    0.18687762245091
N           0.49772591082052   -2.73205915180935    0.01299202991227
H           0.48867083700976   -1.93168773154441   -0.61519748940040
H           0.39224898766509   -3.56427293306323   -0.55418383252245
H           1.41693368178296   -2.76536447957990    0.43731328460526
