    26
        -50.45335461  Gyration_radius:  2.50744929085 Dipole_moment: 8.533
 S          -2.08433236721559    1.12410432523698   -0.68999426972006
O          -2.07017904910816   -0.32927562580772   -0.99765303629066
O          -3.39262428139663    1.66345065509759   -0.56853442482206
O          -1.23164943478065    1.34342452183698    0.50353263728354
O          -1.35471940931757    1.82811321698639   -1.87868098265380
H          -0.40782847557543    1.55929867283438   -1.86893532054998
H          -1.20885261086297    0.01337226498700    1.32524562832022
O           0.28548217027402   -1.32325909263892   -1.66142031229093
H           0.79438423278065   -0.52319804513563   -1.86084569812071
H          -0.64144112895621   -1.01049299744509   -1.54881291691180
O           1.34798604577703    1.97123906143857    0.64394531408408
H           0.37252084173636    1.93991744621531    0.70552740200102
H           1.65841979574920    1.25565185122021    1.22771931428903
O           0.87963754021624   -2.30423012351600    0.64136795295060
H           0.71169588431715   -1.93726566480882   -0.28560522603475
H           1.05403037929022   -3.23896926866503    0.52678967083894
O           1.24607532674776    1.24295687964505   -1.82437491179665
H           1.39342814546855    1.53814123361724   -0.87226016506547
H           1.67222367024216    1.89636490239546   -2.38088459231140
O           2.08749492238158   -0.27738454214647    2.05545398330719
H           3.03172616652968   -0.40968227322265    2.14939395697805
H           1.74273821910567   -1.03514522664597    1.55299778827332
N          -1.42087704095580   -1.03521341061885    1.33772692658227
H          -2.03985715501465   -1.30701540461318    2.09228876082684
H          -0.54690050862165   -1.59584807155214    1.30680581572304
H          -1.87858187880434   -1.04905527470816    0.36920670510605
