    26
        -50.45335461  Gyration_radius:  2.5074497165 Dipole_moment: 8.533
 S          -1.53724478484605   -1.84553637722095   -0.56121297560130
O          -0.44699304252175   -1.66550787705292   -1.55424049577841
O          -2.07959497549303   -3.15816021981431   -0.54897941850895
O          -1.02929769584870   -1.39381571191726    0.75697513732099
O          -2.66141482768282   -0.83684712274466   -0.96087094976905
H          -2.32358286146723    0.07812294036174   -0.82798718472384
H           0.52701362209488   -1.54383221666600    0.74610630566661
O          -1.21578416901198    0.99413337807663    1.91078573829489
H          -1.26373709761787    0.04666592483698    1.67349464846927
H          -0.27449730110515    1.15641354615367    2.10277805023807
O           1.50273906159346    1.40313251781880    2.10537896751063
H           1.86012214806325    1.26132078791212    1.21224777150080
H           1.76590254430340    2.28371818701846    2.37594653652162
O           0.32423992909627    0.82989353517413   -1.94907491726224
H           0.01276721975209   -0.10426092609846   -1.95455247713311
H          -0.40620576148281    1.33228125585006   -1.55804422070345
O           2.39218426766229    0.77181377952421   -0.41989530706983
H           3.15342237237840    1.02088661021376   -0.94502203321127
H           1.59138248405058    0.86463923132689   -1.03001478017111
O          -1.85071504764046    1.66014565625754   -0.49476467917031
H          -2.64503853202544    2.19614660034822   -0.49187227626492
H          -1.60628428270245    1.50561736833433    0.47050395484779
N           1.40797268122995   -1.69494303818881    0.15812398923173
H           1.96717282688445   -0.82233827066795    0.08770196522483
H           0.88071830770051   -1.84652799215981   -0.76205775882485
H           1.95475292463167   -2.49316155666319    0.45854639935526
