    26
        -50.44680081  Gyration_radius:  2.52138709095 Dipole_moment: 2.312
 S          -1.20997587588282   -0.01489484239994   -1.10409528222322
O          -0.22523121635800    0.90216861463593   -0.59357263217948
O          -1.00672336240142   -0.45855642777433   -2.44260803331752
O          -1.28611194752404   -1.23621722424954   -0.14055915903594
O          -2.61115608392492    0.58816252407659   -0.96296299464573
H          -2.69726395225555    0.78816317891345    0.02631599606324
H          -0.43467519952541   -1.33310537174797    0.38046715035718
O           0.90213689538313   -1.57177702763178    1.17268725564412
H           1.53211007132424   -1.77793552177548    0.41926660020316
H           0.87934451995510   -2.35503464579150    1.72746184075319
O          -0.27168480927892    0.62326110498368    2.57946734832551
H           0.11180529058901    1.47297621796205    2.28052106957808
H           0.24615349390832   -0.05942137774275    2.13327712398386
O           0.41771230122636    2.82919668338610    1.18353359855556
H           0.28220472430292    2.21042209899205    0.44434918589110
H          -0.32238416612903    3.43869613596986    1.15812140871449
O          -2.67041607678728    0.89666571952856    1.56247264619711
H          -1.75984372731461    0.79799614207195    1.96615035679042
H          -3.20160859593320    0.18955793883198    1.93386529573353
O           2.30501975283981   -2.22406317237048   -0.90844758060612
H           2.26212752807233   -1.39712940342637   -1.47558328429428
H           1.83592504613780   -2.89697995386703   -1.40554054496314
N           1.85454815941742   -0.07908765343513   -2.37475500318287
H           0.89256982939282   -0.25862021710476   -2.65629776423029
H           2.37002719085256    0.23578822247052   -3.18751102286164
H           1.80539019992449    0.68976825747923   -1.71602359524796
