    26
        -50.44537469  Gyration_radius:  2.45182088524 Dipole_moment: 4.574
 S          -1.73630797478592   -1.41628442262075    0.10843967472869
O          -2.23791076166295   -0.09296577515343    0.38496691443466
O          -2.55292434272347   -2.23158891517542   -0.71819721832054
O          -0.32211371033443   -1.23823463863478   -0.58885743286822
O          -1.32830363015454   -2.12230619242110    1.38138095702610
H          -0.67654903234572   -1.45277182256066    1.88572578678267
H          -0.38297449422571   -0.54290427849308   -1.30182192906563
O          -0.58295228060102    0.62088140827629   -2.38005136927478
H          -0.88661683141815    1.36478689014938   -1.81567150421714
H          -1.32426794094949    0.37769623212926   -2.93921179577840
O           0.52435351286396    1.72637080851205    1.22318058439860
H           1.19970248517374    1.48366608728015    0.54709837959190
H          -0.23051109720807    2.06321497444069    0.72502835138379
O           0.33722206838830   -0.59951385382213    2.41084053868447
H           1.15049850164530   -0.98376377760684    2.03753061965632
H           0.30390831130646    0.32894206831665    2.04553274979982
O          -1.64943778502738    2.24910029013123   -0.54011406257908
H          -1.94941480258630    1.40372100243295   -0.12552809618616
H          -2.38258654312742    2.86213413328436   -0.46923075373087
O           2.01157629692214   -1.96187799847593    0.68647913471133
H           1.22279240215277   -1.81473894494784    0.13890814374373
H           2.01928333971953   -2.89391514602904    0.91162429079282
N           2.22203470020484    0.84656931999505   -0.71602499268455
H           1.67760637297046    0.69149581425805   -1.55586595953690
H           2.53317670773545   -0.05388093460049   -0.37090899723638
H           3.04071653806462    1.38616769133578   -0.96525199425600
