    26
        -50.44792025  Gyration_radius:  2.50546195892 Dipole_moment: 6.045
 S          -0.17182811444222    2.01153698982553   -1.29844711720505
O          -1.18881940338277    2.04511575426075   -0.26930236356720
O           0.06637666116813    3.20944230217701   -2.00999608066018
O           1.13505567512558    1.48603673792769   -0.62344272522897
O          -0.49071767423370    0.87825253118678   -2.29363114152942
H          -0.91729397520594    0.08495507810488   -1.84622325981996
H           1.10371279564269    1.87316305513855    0.31700362476517
O           0.38856254533170   -0.24463780672244    2.45527646084888
H           1.02052476362431   -0.57296479057919    1.74937164015677
H           0.68874966467258   -0.62302542558780    3.28234791206934
O          -2.00459603927868   -0.09875790686954    1.11526154781923
H          -1.86789624318069    0.78557890419121    0.72604007276011
H          -1.23907162237896   -0.25110237789513    1.69615691565058
O          -1.69550299703929   -1.14216156605091   -1.21800287056744
H          -1.83994633685469   -0.84825713186834   -0.26559623550015
H          -2.56526552416480   -1.16364282692860   -1.62232725451122
O           0.65124550595726    2.33231920176724    1.71291307592592
H          -0.23376709197553    2.59021521764196    1.42232703813442
H           0.55363403610683    1.46288985852740    2.16016770227269
O           2.00534950631862   -0.95013780287766    0.54687600085435
H           1.63156692096114   -1.64600702305270   -0.04978869701256
H           2.02766670638190   -0.14503006207631    0.01577859139718
N           0.87728366565868   -2.64013696572768   -1.23151700731140
H          -0.06878968112988   -2.27688337545845   -1.29760197551254
H           0.82072115450759   -3.63130106883430   -1.03583106985983
H           1.31304510181206   -2.52545951023605   -2.13781277437841
