    26
        -50.45420419  Gyration_radius:  2.50735938895 Dipole_moment: 2.901
 S           0.86322586167793   -1.05522644994376   -0.54299672623825
O           1.47129864590487   -0.15653315439472   -1.50113436240196
O           1.59312181213585   -1.19482874064731    0.67965191383333
O          -0.56627472643200   -0.59551059541139   -0.25437658719355
O           0.65078225540852   -2.42840961175842   -1.18270278986867
H           0.02628992554343   -2.26135824866613   -1.96253545541149
H          -0.63905693514209    0.46236392735257   -0.10654644714216
O          -0.85600799261173   -1.75571019438159   -3.13823648966372
H          -0.93388455434973   -0.77462676951848   -3.04473817052414
H          -0.41183911689069   -1.90598558727888   -3.97640185793974
O          -1.51039201871921    1.47136401739098    2.57147391695782
H          -2.43020419121813    1.20437846795557    2.60488055860690
H          -0.97351186999350    0.65533033823901    2.76761346899826
O           2.00593226797113    1.63831854157897    0.42284481270610
H           2.08703570967156    1.14647733540200   -0.41011756197937
H           2.20544402287583    0.99435963100469    1.10855137551922
O          -0.63463614437185    1.84851024905196    0.13672917637308
H           0.32762243657724    2.02106252962724    0.26053582614592
H          -1.01985265993962    1.86662373701927    1.05496725534966
O          -0.59965297415360    0.87363081631809   -2.83021832107757
H           0.27707922543650    0.66856017332144   -2.45559533262403
H          -1.04739776958702    1.41108180549973   -2.17057040711541
N          -0.11917418487298   -0.79344772003625    2.97229516082325
H          -0.72482728673396   -1.60294646910771    3.03820532583017
H           0.47385002724637   -0.79242417124704    3.79386048831339
H           0.48503023457287   -0.94505386736275    2.16456124970951
