    26
        -50.45420418  Gyration_radius:  2.50742602743 Dipole_moment: 2.903
 S          -0.92861342161502    0.54770983938862   -0.99401130852291
O          -0.97810031122912    1.83661795256581   -0.33686229586316
O           0.03127839696908    0.46189835723187   -2.05161384443603
O          -0.66555138477919   -0.54100281758666    0.04672366502072
O          -2.31725572324777    0.18028343608313   -1.51994146967792
H          -2.90772717426520    0.14004521305854   -0.69785112454155
H           0.10468996043411   -0.27276632031070    0.74102279732925
O           1.16745934940848    0.13206101184284    1.56860927473844
H           1.80521547887626   -0.61731100693497    1.41458168627736
H           1.53514078216509    0.88948242305013    1.05651444336930
O          -1.68595776122472    1.26009144493142    2.16960722081592
H          -0.92518787635739    0.78560272975555    2.51672974290036
H          -1.38180922605505    1.68366189636651    1.34546471541733
O          -3.62745671040249    0.22162363594661    0.67745705293794
H          -4.27798128894155    0.92814645621355    0.67077064258498
H          -2.94931723824743    0.48373455647572    1.34730833410804
O           1.70246402451838    1.97989169820759   -0.27441634335572
H           1.84465641907443    1.55374068032795   -1.12465201538541
H           0.77659086719226    2.27078951033323   -0.29500850217666
O           2.61328917212487   -1.90143420817691    0.78714552530167
H           2.31072705547949   -2.73800642009786    1.14354453422200
H           2.33527441526283   -1.88637518724398   -0.16948752633671
N           1.71636570849748   -1.86515440911957   -1.74642760127317
H           1.11637653521779   -1.04828319037204   -1.86156114837197
H           1.14725986415231   -2.67612597868991   -1.95837157798726
H           2.43817008702323   -1.80892129328063   -2.45527487712403
