    26
        -50.44544894  Gyration_radius:  2.58987909736 Dipole_moment: 4.021
 S          -2.13585996286987    0.43363188199412   -0.10798524944933
O          -1.35218175617124   -0.00857426031392    1.02947941363220
O          -3.53876366444094    0.42653380996391    0.06752761195772
O          -1.58623270810384    1.82547249878275   -0.52839911774568
O          -1.75638155380660   -0.42021523546277   -1.33597699119841
H          -0.83671581330515   -0.10437011003248   -1.64380534607928
H          -1.38819797817458    2.31255579477122    0.34385789050643
O           1.67190965840230    2.43128596645677    1.65933372830537
H           1.68021157190894    1.54389587411341    1.25004413973425
H           2.22639453200385    2.38144277301484    2.43932574027460
O           1.23607058101722   -0.00119568075252    0.56983965823099
H           0.28804139483528   -0.04095571270872    0.82887139119244
H           1.55515228511774   -0.93249849253292    0.64715210033216
O          -1.00151726421778    2.61649223991101    1.79781384742140
H          -0.02054063582759    2.71040331000996    1.78606749390226
H          -1.18199378057458    1.72577128624846    2.12492374292558
O           0.56347751802029    0.45792088919156   -1.91583972371971
H           0.98490118024369    0.30002346597063   -1.02685220432325
H           0.41595801899557    1.40558392644163   -1.97946238340662
O           1.62187238544208   -2.61890661843633    0.62938116119629
H           1.17167026329814   -2.75644233713041   -0.24221450182746
H           1.04831899047439   -3.00657893690562    1.29264665343318
N           0.22880943683486   -2.71843302599396   -1.68952453015661
H           0.14467847800640   -3.56402969239988   -2.24011573076084
H           0.66809895915397   -2.01410906352210   -2.27164177097040
H          -0.70718013630002   -2.38470454067444   -1.48444703333883
