    26
        -50.44731774  Gyration_radius:  2.54298039403 Dipole_moment: 5.483
 S           0.71420775192044   -1.50199525199818    1.70132681916001
O           0.79806817277204   -1.11487047351671    0.30679564999470
O           1.93110529019125   -1.94824601927377    2.27130273293128
O           0.13714526212253   -0.27493116348619    2.47711428848491
O          -0.40668522787939   -2.52604465284241    1.88537901736827
H          -1.28416345208840   -2.05148939066319    1.69466784488152
H           0.81812352542970    0.44821128165883    2.32237130166549
O           1.59492954170189    0.10667810599455   -2.09035083846717
H           1.52052971056800    0.99133219000381   -1.71364583763846
H           1.48733765927843   -0.49959238472680   -1.34538906797294
O          -1.23300813279259    0.40751420534986   -0.37391003921001
H          -0.48014342130833   -0.18390729848978   -0.15303593614848
H          -1.38358794356302    0.23769842542642   -1.34577734113597
O          -2.46519533927592   -1.06260569287411    1.46712546265628
H          -2.44519581198323   -0.52181503466825    2.26106424332323
H          -2.17746376876221   -0.47202798947721    0.72918920651390
O           1.98527110401568    1.28624081476762    1.67832810865263
H           1.59148272052754    1.70226305240241    0.87622901283430
H           2.62513198038687    0.63723398236341    1.37602523374946
O           0.65303575165020    2.29332733467781   -0.42735287743849
H          -0.13855941228351    1.70080945449232   -0.40428900386453
H           0.33372008240978    3.19152586316628   -0.33193521948148
N          -1.15325505322556   -0.13812486258131   -2.97460165920438
H          -0.13093126239126   -0.12265934401268   -2.94619868417203
H          -1.45408631127530    0.49016218225054   -3.70863435190158
H          -1.43781343613904   -1.07468732394027   -3.23179808558480
