    26
        -50.45002659  Gyration_radius:  2.51447701404 Dipole_moment: 6.063
 S           0.52705078818674   -1.04015498788825   -2.29521865016277
O          -0.85675350232727   -1.14838289700459   -1.89647407012108
O           0.80070103281513   -1.06410821359630   -3.68385808060914
O           1.12324228952561    0.23104362307609   -1.62675385569811
O           1.33042828552857   -2.15952675588406   -1.58855696822178
H           1.05495118015677   -2.10369467926285   -0.63460557256486
H           0.41485100161051    0.93572581709842   -1.38335416490114
O          -0.19849051571189    1.90865564994055    1.82050805717168
H          -0.69614209628356    1.04814254997115    1.87717177482004
H          -0.68362427448036    2.53581687967179    2.35800056210362
O          -2.70992902616231    0.23431078398275   -0.72398997557416
H          -3.54147285877913    0.15446410567448   -1.19295548051015
H          -2.07279346336338   -0.35897752025782   -1.18857627005469
O          -0.57762216149683    1.94224774141708   -0.86255394090774
H          -0.35510453534295    2.05441084836987    0.08656791696670
H          -1.44088396499735    1.48979564470803   -0.87157306081322
O          -1.51292630814418   -0.36667480474473    1.70001456811371
H          -0.84485015532072   -1.00670997583537    1.40568063297430
H          -2.08931500463871   -0.21549225502931    0.93362324898699
O           0.73703833460657   -1.82688378246510    0.91977397583707
H           1.32669192942258   -1.00465618341782    1.05917142324423
H           1.09645999230040   -2.52580462157512    1.46932088196258
N           2.18911340213282    0.32603243286637    1.11934246766399
H           1.58972754321926    1.04656294447863    1.51161073077753
H           2.29174926263940    0.52405303610019    0.12913011415597
H           3.09790283502905    0.38980458967706    1.55855374530755
