    26
        -50.44454804  Gyration_radius:  2.52979465774 Dipole_moment: 3.117
 S          -1.87859791316337   -0.73923844371850    0.43225526543665
O          -2.19124977297326   -0.14816001986600   -0.84303762954075
O          -1.96616414067381   -2.15721571908261    0.52482503166271
O          -0.46162637527549   -0.27578602773738    0.84992109879954
O          -2.76837874656535   -0.07926153933480    1.50911083142256
H          -2.59923956292200    0.90189094423155    1.42981170073855
H           0.14729161707361   -1.10690129049231    0.78651330620192
O          -0.73669255656838    1.96193857421366   -1.22586311649032
H          -1.23860411372700    1.11185548860895   -1.17814399878206
H          -0.89269185852815    2.31761954997298   -2.10339491952506
O           1.37739043328332   -1.79118769687438   -1.92143356447265
H           2.18938586231264   -2.10278478833629   -2.32418519797434
H           1.50342955924341   -0.81406684504560   -1.77703223148050
O           1.79847766476081    0.72939297237059   -1.31775599880980
H           2.13016227067544    0.60929884533829   -0.40160156168290
H           0.96213169122028    1.21193847804638   -1.22904643137534
O          -2.24063340983165    2.41815333762516    1.00653010554673
H          -3.02367441862423    2.80660060087331    0.60883977251422
H          -1.56433607610631    2.37242680325609    0.30060929152088
O           0.76712145932810   -2.43920214642041    0.53958032931217
H          -0.08314531957711   -2.90000826931053    0.52392938356901
H           1.03146116050965   -2.31295590902139   -0.41266164621600
N           2.46049759767907    0.19137189032933    1.29824501369555
H           3.23054851356155    0.53380607135188    1.85869372393177
H           2.45212616017983   -0.82019014420344    1.35581709120980
H           1.59501027469830    0.52066526322221    1.70947438077630
