    26
        -50.45410584  Gyration_radius:  2.41933437828 Dipole_moment: 4.718
 S           0.15735706472038    0.50317959409281   -1.36789877740951
O           1.16038811088730    0.05490474484441   -0.41760125922669
O           0.36905680201689    0.06580122729245   -2.70754272724665
O          -1.22591867059582    0.06164775871295   -0.86482324403161
O           0.05338620103537    2.02513144036068   -1.28974049140555
H           0.55918258621601    2.32747716072270   -0.42930197550570
H          -1.25822167008788   -0.97937305369770   -0.56582331522234
O          -2.27099278269406    2.07445735195637    0.69109375013059
H          -2.07621967354674    1.34476119426594    0.08265455632618
H          -2.05731153911473    2.88115823363845    0.21729390673759
O          -0.35152819009298    1.47692279262248    2.50378347545418
H          -1.18263022859428    1.70514655152322    2.04231154183723
H          -0.24924279114235    0.51595048481812    2.42200832186981
O          -1.10474920256423   -2.28782491028136   -0.12788259756987
H          -0.68112426614932   -2.13494512966228    0.73616541832708
H          -0.38137254624050   -2.58324622212386   -0.76238304497018
O           1.32483326602864    2.52008883212136    0.80791276384988
H           0.71527313466317    2.21888609705754    1.54713580094676
H           1.97022927222356    1.81424204304782    0.69931844634385
O           0.43824899325773   -1.13009452657027    1.79521154315388
H           0.76948172114179   -0.68527834439091    0.97860539476458
H           1.20845880084365   -1.43793991172567    2.27561265047771
N           0.83698283324138   -2.63026212610945   -1.86980755977889
H           1.77384712686010   -2.64944140905652   -1.48616148581212
H           0.72221617458777   -1.72514544455652   -2.32613183696304
H           0.78036946321052   -3.34620442892281   -2.58400924503836
