    26
        -50.45556561  Gyration_radius:  2.42502041972 Dipole_moment: 6.874
 S          -1.14355339461838   -1.15075919230060    1.10993376725186
O          -1.70427198923733   -0.62328790887006   -0.10908802879666
O          -0.80302150141392   -2.56385566748407    1.01307108130532
O           0.06187107240408   -0.38235830958903    1.51778166968640
O          -2.19179400969217   -0.97997518724148    2.25164569052912
H          -2.36924534673656   -0.01773375458945    2.22850408036289
H           1.39937485036854   -1.29558056605529    1.01175935058546
O           1.45495950192440    1.43124878847408    0.10626122316839
H           1.77522131720918    0.90136219676566   -0.63321548795649
H           0.95602169762589    0.81670668435474    0.67868388575288
O           1.73232590781240   -0.65410130617060   -1.89149317745285
H           2.05506922424275   -0.94579041884858   -2.74520822408148
H           0.80404666700189   -0.27925233664450   -2.06869122050515
O          -0.77123685083937    2.65280512851952   -0.75069358197792
H          -0.73848289509503    3.60939473531986   -0.71255544084913
H           0.09065708820006    2.32704425423337   -0.40408894465136
O          -1.79221926429470    1.61032492119160    1.76072107328380
H          -0.91374155653148    1.22564000915760    1.87785182917197
H          -1.82418844222134    1.87604178953543    0.82885500561721
O          -0.60963563400451    0.31352490166162   -2.28491737123600
H          -1.12090500939153   -0.13355703456830   -1.57495762052717
H          -0.69304647377165    1.24964788309477   -2.04735281509110
N           1.59884583341820   -2.08686927893336    0.35346326941283
H           0.65222702304513   -2.58217724440656    0.46736556057820
H           2.39543066929073   -2.65331593262113    0.62454523674672
H           1.69929150529210   -1.66512716394580   -0.60818079035123
