    26
        -50.44565994  Gyration_radius:  2.52626930456 Dipole_moment: 5.228
 S          -0.61588831963996    0.33308823934686   -2.41370070024733
O          -0.10923077020489   -0.93179610681107   -1.92952067947545
O          -1.70018476746042    0.28045662744765   -3.32295670881479
O          -1.01315094952845    1.17695626132863   -1.15522500493785
O           0.53969108861257    1.18007769767192   -2.96340203835730
H           1.29038038492918    1.00910021603102   -2.31540695967581
H          -1.60451649866727    0.64042094607711   -0.53445674073128
O           2.10693353541556    0.34112738985282   -1.12983197097599
H           1.93554098017490    0.69548661646299   -0.23343071875539
H           1.55103490476266   -0.44858373248919   -1.21730861689079
O          -0.95765188346138    2.08034243428994    1.52332704481313
H          -1.54764357842847    1.31539918437657    1.55814383187824
H          -1.04412665767726    2.42570782420364    0.62879308116089
O          -2.41592088565488   -0.14839836318429    0.53182556966101
H          -1.88077012466870   -1.01644998053464    0.53684603984371
H          -3.28446063246857   -0.37451051987934    0.19431412821767
O           1.55701134118191    1.20163971690676    1.40178305618116
H           2.11421076319000    1.90747576169471    1.73351763968194
H           0.62610794023486    1.51709327348855    1.49425798021167
O          -0.96722865436789   -2.22835612132504    0.28712527170804
H          -0.15839055287991   -2.13409091757009    0.85169022124175
H          -0.67060418701781   -2.00492903722574   -0.61126648122595
N           1.32591531438950   -1.77160899688401    1.64972476707802
H           1.45361125001923   -0.76380416675000    1.67771715466240
H           2.11607422111186   -2.16763209563009    1.15584852914958
H           1.35325673809464   -2.11421215090655    2.60159230459798
