    26
        -50.44924633  Gyration_radius:  2.52512448215 Dipole_moment: 6.222
 S          -1.43151285282692    1.17636643099101    1.81806322680501
O          -0.50313998361610    2.11144913705497    1.22355475232900
O          -2.62665432032314    1.71115588193441    2.35006901840892
O          -1.72776861265085    0.08532639701552    0.73411055854031
O          -0.71206192420506    0.34696099987246    2.89802870952976
H           0.07694200179500   -0.13135243585978    2.49994027197125
H          -1.65488781137421    0.56694877890355   -0.15931905963062
O          -0.40354518016691   -2.35863320864731    0.39505708511885
H          -0.18413471163407   -2.25272742012329   -0.57036870743367
H          -1.16698798438932   -1.78631686527802    0.54229435987355
O           1.16485733936284    0.88902254072586   -2.09014148702308
H           1.63048663996816    1.52740401989824   -2.63239190748508
H           1.52823932138992    0.99472073253914   -1.16767905941763
O           1.89843818799144    1.25254055005576    0.39332034177192
H           1.11320682019448    1.71772206985307    0.74092379577712
H           1.92893443356534    0.41748151197724    0.88076819879874
O          -1.31746622834350    1.55017190082223   -1.28886995820417
H          -0.46917686687754    1.26497121419159   -1.70034648081975
H          -1.07671167594496    2.24739073383416   -0.66236239783863
O           1.21835966904917   -1.01040696964846    1.84756039656318
H           1.59071051399141   -1.58658065236109    2.51768376188918
H           0.64755988217105   -1.59965470785734    1.24946850072074
N           0.07913769120511   -1.86476616200097   -2.19563888962456
H           0.54306759842045   -0.96105779434378   -2.23565328929852
H          -0.79913435529414   -1.77711014159535   -2.69168969643466
H           0.65324240862221   -2.53102656206377   -2.69638205497594
