    26
        -50.45360863  Gyration_radius:  2.44592877106 Dipole_moment: 3.749
 S          -1.02086216109263   -0.61921796701016   -1.40872618744844
O          -1.19174679231679    0.04645821279178   -0.12817253900623
O          -1.48421037507826    0.11228623466908   -2.53657300880570
O           0.44893630732108   -0.99888286573226   -1.57782489279689
O          -1.74814743469979   -1.97539253006856   -1.33776844692404
H          -1.50378012505265   -2.35201702525582   -0.45081351845816
H           1.12007805689996   -0.60563321551649   -0.85996398571669
O          -0.87351710649931    0.62674305618143    2.47986768834746
H          -1.20682776763676    0.40901855946706    1.59095783744990
H          -0.47756462851817    1.49875316368241    2.38669955808950
O           0.49622300490558    2.13380622331334    0.17133343133363
H           0.67360149740114    2.41231888529059   -0.75494088682991
H          -0.27087180785092    1.54395504472800    0.07368931414566
O           0.91088468204410   -1.29316343421057    2.33194216037425
H           1.29882581072058   -1.55834408390457    3.16687610607193
H           0.27412193516431   -0.55424493631987    2.52101650067825
O           1.96598687812366   -0.04042982903158    0.14709838836666
H           1.73944831762046   -0.54066995015201    0.95210519717634
H           1.56130641660425    0.86362709749002    0.24786832527817
O          -1.12697782809996   -2.64752056734942    1.09635213593563
H          -0.29052121594354   -2.27237416395799    1.43464342357223
H          -1.82859647796874   -2.22494578925518    1.59827211575603
N           0.65770487840593    2.10203825513888   -2.52119271679692
H           0.56133115528387    2.87241312614111   -3.17199557910836
H          -0.15268553225116    1.49690791503829   -2.64375605975149
H           1.46786032251060    1.56451058384637   -2.80699435092662
