    26
        -50.44946737  Gyration_radius:  2.49165100805 Dipole_moment: 5.204
 S           1.21456074232721   -0.98014137544734    1.00212725884733
O          -0.20897155121902   -1.03844148209547    0.72615057663097
O           1.95066393872199   -2.11836184463596    0.56613650363087
O           1.77779113445534    0.30569685167030    0.36220243351091
O           1.41908649823110   -0.74531424228671    2.50010142247156
H           1.21043179530967    0.23122506757688    2.72155582910004
H           2.32971781588854    0.03024819705597   -0.45742842605396
O           0.28731225560668   -0.93500978025402   -2.02480096609172
H          -0.12074654743636   -0.05317822826717   -2.10774421507581
H           0.05946683145193   -1.22714731364311   -1.13353508336348
O          -1.26054956548388    1.33956175582910   -1.83266462351885
H          -1.91449420784520    0.69399223305114   -1.45518604696419
H          -1.67214514599032    1.73816455005809   -2.60033425083439
O          -0.94902267826871    1.53684668267901    0.98212190257953
H          -0.79466230856558    0.57808259437527    0.90492175113088
H          -0.85803875335096    1.86684785119618    0.07882114011194
O           0.75532460524560    1.66533855555605    2.96346591258207
H           0.20051083793355    1.71053866566291    3.74600582718585
H           0.15404462853731    1.80147273138673    2.18523943380088
O           2.89784404752856   -0.75839567941436   -1.62842355317694
H           2.02055742986860   -0.86458720011579   -2.06509864011240
H           3.04103271908215   -1.58355548261557   -1.14692036502788
N          -2.79680961414865   -0.58537954367929   -0.72166924273738
H          -3.56122468182147   -0.31092469354139   -0.11732486359083
H          -2.06036741295901   -0.96069092735064   -0.13011976135867
H          -3.12131277312896   -1.33688794271413   -1.31759994368513
