    26
        -50.45004724  Gyration_radius:  2.53817135302 Dipole_moment: 6.008
 S           0.22981362256909   -1.13833294726979   -2.34936200963787
O          -0.51568318346423   -1.29663381279939   -1.11970278012780
O          -0.02046220265233   -2.06206890134776   -3.38878737398618
O           0.00667095850906    0.30607300823902   -2.86941474083538
O           1.74166811676131   -1.17012848281580   -1.99955491397817
H           1.90812654808830   -0.75495103540868   -1.10626678609283
H          -0.31196030692514    0.92946552365207   -2.15608612089957
O          -0.79259371994700    2.06017449138802   -1.14050941615890
H          -0.21646926094445    2.04159445935853   -0.31331057684783
H          -0.65440565712348    2.91573518048389   -1.55002511085932
O          -1.23635424666128    0.52319515937781    2.40909943585159
H          -1.83180062440355    0.98059001010190    3.00377705344598
H          -1.75510013301317    0.34601480020662    1.57940938800281
O          -2.43888169013783    0.16803644604255    0.08507938609355
H          -2.22782409595044    0.98410965932020   -0.38687856533599
H          -1.88014386282828   -0.50458043568327   -0.34379409228956
O           0.64513559530055    1.90517075363640    1.00094319596188
H           1.33394066016660    1.25443848074368    0.79017869180611
H           0.03878235628345    1.45228390326683    1.62176280655279
O           2.24685386033947   -0.24689912592731    0.37021748585076
H           1.60761831703048   -0.85933810875819    0.89802075444273
H           3.14145916372967   -0.50677566278466    0.59562920587046
N           0.48433033394790   -1.71801738557036    1.53997118294798
H          -0.05340165836650   -1.86593046791247    0.68797477035883
H          -0.07725940650204   -1.13191631899405    2.15041787565320
H           0.62794053680345   -2.61130916999999    1.99121125365787
