    26
        -50.45063948  Gyration_radius:  2.42568085005 Dipole_moment: 4.347
 S          -1.03385934197784    0.77462244945375   -1.50384688076760
O          -1.96522441859538    0.64396860447879   -0.40398335330771
O          -0.70849437686315    2.12230669729196   -1.84067048129090
O           0.28365396305088    0.02166595714235   -1.10602917145653
O          -1.49918172076375   -0.02162812044627   -2.69852325260319
H          -1.34494770234750   -1.04822704645388   -2.47804640368034
H           0.83026382282945    0.67657560093125   -0.58940197894173
O           1.22931041288804    2.11633367279992    0.07659784386209
H           0.64035163826597    2.10735813081027    0.85412750840769
H           0.74649395835013    2.59101357928779   -0.61641591134573
O          -0.82527522578417    1.61315661981696    1.77305515602659
H          -1.34996641403048    1.27377606378774    1.01502725117697
H          -1.44053591626180    2.07196605993085    2.34771583608244
O          -1.73570075822352   -1.93676160679715    0.41177553259033
H          -2.08185030042551   -1.04934069297225    0.23030033580335
H          -0.96574328104085   -1.78366806736863    1.00482043314554
O           0.30169939900673   -1.02241252443666    1.90227619666938
H          -0.03045225376338   -0.13334681408972    2.08013137674767
H           1.19223966219164   -0.89875794339349    1.51547022923611
O          -0.98426408444067   -2.35585868782692   -2.00633989808947
H          -0.02536647388124   -2.34319857325209   -1.94184704069545
H          -1.32099219947616   -2.33914816361378   -1.05091545673853
N           2.78986462779908   -0.37016637831970    0.85580963287417
H           3.02121551030179   -0.80253339412073   -0.02921013629053
H           3.55640109951376   -0.53723811216652    1.49535489373478
H           2.72036037317293    0.62954268987838    0.70276773873586
