    26
        -50.44737915  Gyration_radius:  2.49771113499 Dipole_moment: 7.350
 S          -0.55561757685806    1.40015582756118   -1.97488148977155
O          -0.71922980505952    2.05570360175421   -0.68352604573297
O          -0.12657811217814    2.24172746778232   -3.02795857779099
O           0.46046108423161    0.22781640735492   -1.73856674490731
O          -1.82380045345012    0.65724099237888   -2.34359341821672
H          -2.06060292761564   -0.07109240218215   -1.61300790052616
H           1.12383908846327    0.57459559195511   -1.07370273714435
O           0.80065239336138    0.44983623324154    2.44734399114190
H          -0.13180954904770    0.50143732748904    2.15473848519505
H           0.87196048446398    0.97437618462403    3.24651041019582
O          -1.65531743063095    0.81537990338159    1.37518074501470
H          -1.31955015741587    1.33316504063597    0.59443430106632
H          -2.41435964616127    1.29766708429325    1.70759558983080
O          -2.25183410871745   -1.03512505898139   -0.56301706975205
H          -1.50578903370069   -1.68500668962178   -0.69241578097691
H          -2.07449311352115   -0.56578266966723    0.27083151343468
O           1.80140208000461    1.43200326158885    0.09163540621395
H           1.15423199069081    2.13860964147601   -0.03747462668863
H           1.57943842954424    1.03116401315877    0.95667921254670
O          -0.09377976909002   -2.44676991583343   -1.00545234599986
H           0.56911799272988   -2.31726493720133   -0.28371911756461
H           0.21484791062553   -1.88875814038710   -1.72595356073739
N           1.83820415205447   -1.86296476301131    0.81196126137744
H           2.29107446468482   -2.65620666588104    1.24782422647924
H           1.48305386607650   -1.26327325451394    1.54884343689909
H           2.54447775653910   -1.33863410139565    0.30969083643096
