    26
        -50.46800653  Gyration_radius:  2.46416878609 Dipole_moment: 6.696
 S           1.02070915710988    0.65014173717970   -0.04632956460274
O           0.76899823301432    0.00127083593597   -1.32586926894265
O           0.07808918815952    1.75828445976343    0.15555101545200
O           0.93602795588164   -0.29722896321649    1.06026771729216
O           2.42941445527654    1.27321122806114   -0.06198777669336
H           3.02613149262105    0.50297833649957    0.17376520426673
H          -0.50023382459327   -1.11923120561625    1.42919018842267
O          -2.24751869673141    1.72907015610723   -1.17148954130461
H          -2.25588616680025    2.12303143029226   -2.04493481841711
H          -1.32620363930925    1.81044497212068   -0.84617610961722
O          -1.46690346501489   -1.30164231473713    1.43387683465859
H          -1.68015415836672   -1.42181888673901    0.47397100326191
H          -1.89493573638882    0.07799236911864    1.64474080031088
O           3.50196756080330   -0.94697127784270    0.62656357781506
H           2.67427815882979   -1.04222757439964    1.12264434437889
H           3.37535181030754   -1.47263912285269   -0.18907315984486
O          -1.69564037734996   -1.00616934929501   -1.16967936750721
H          -0.76361997694720   -0.75849547595939   -1.33320629635399
H          -2.18289817167986   -0.17726882026173   -1.29170191832561
O           2.44968383736394   -2.03253833713903   -1.59966217317482
H           1.90276591017556   -2.81628448183233   -1.67615998612016
H           1.83687739516188   -1.26837766658955   -1.62847938847783
N          -2.00409851744527    1.18475431580530    1.61125803933268
H          -2.73769427848967    1.44402393396502    0.95119348200841
H          -1.08679092474704    1.50737835317947    1.17764011063701
H          -2.15771718086463    1.59831135848405    2.52408707160857
