    26
        -50.46412572  Gyration_radius:  2.3997499337 Dipole_moment: 4.124
 S           0.92531647329478    1.22455068334454    0.91316242821952
O          -0.04125330224741    0.27909451004296    1.46605012045522
O           2.13142596246469    1.29208153665239    1.70474516145813
O           1.24877522195700    0.86515450016882   -0.48576453561728
O           0.24290401096468    2.61922390233264    0.86757040512057
H          -0.58480277470780    2.49191771831036    0.33534572234648
H           2.36794431861122   -0.26196586512965   -0.27279335389153
O          -2.49916751269233   -0.25773880536180    0.64250497493041
H          -1.66401454988468   -0.05836277391095    1.11368860357961
H          -2.72362436745145    0.57101740873900    0.20430625710117
O          -1.85906889965370    2.18549397510638   -0.67624377431322
H          -1.48303940160524    1.52789278201180   -1.33386166796806
H          -2.04363549552018    2.98514957324111   -1.17213623273484
O          -1.31933170296252   -1.99386738028625   -0.95263781946370
H          -1.92104825247362   -2.70231779165072   -1.18499809413219
H          -1.82413766915956   -1.39404861981438   -0.33823074675085
O          -0.69646272876975    0.42976989377433   -2.20746815205991
H          -0.94587087641444   -0.47714701734714   -1.96719353803232
H           0.12677345916390    0.59729980300359   -1.70218602395012
O           0.65956258624633   -2.20878746785593    0.96767710068280
H           0.08309174509255   -2.33206553338343    0.19052805100192
H           0.32456898889842   -1.37035537645322    1.35835607053221
N           2.82685395413311   -0.89305786525520    0.44585431657899
H           2.87842437605462   -0.21394557169979    1.23946528891868
H           3.72486390533940   -1.27933821372873    0.17507984872616
H           2.06495252133222   -1.62564802486734    0.66917958925436
