    26
        -50.45058260  Gyration_radius:  2.43744316348 Dipole_moment: 1.780
 S           1.28455268531954    0.24659609694926    1.09060238940706
O           0.44125724047424   -0.72554818663071    0.43965164463718
O           2.62384004973746    0.29310111167245    0.60516993288882
O           0.61943181762507    1.64381534903151    0.98560127941846
O           1.25298933798163    0.01643575083000    2.60379568243181
H           0.26727743565801    0.11374005919987    2.81305638491449
H           0.21901296721225    1.77031635610385    0.06704981597529
O          -1.25415980580013    0.43152737672693    2.84684091130062
H          -1.64967754735291    0.56868407878924    1.94247477220531
H          -1.36776758860134    1.26668685995000    3.30574117555101
O          -2.33398368868818    0.75236172553548    0.44691376791857
H          -2.43626446048498   -0.19865748455399    0.24538036208693
H          -1.77662095778190    1.10620150326289   -0.25602865316639
O          -0.29309302237042    1.82092812161132   -1.38655314653740
H           0.52138354506627    1.35055294415613   -1.76412404878156
H          -0.27864556167020    2.71106818528431   -1.74557209459580
O          -1.97385187598093   -1.92987723503224    0.28882894170355
H          -1.05557053262596   -1.60828687900501    0.31038635140152
H          -2.14981478500010   -2.28469284495169    1.16245158084485
O           1.89762604176395    0.66495245230564   -2.04821666235339
H           1.64425611358774   -0.25804894603522   -2.29627386881652
H           2.36900096387210    0.57889904368529   -1.20496201511347
N           0.97760966504223   -1.86233242427598   -2.22178636802357
H           0.75616397559873   -1.71886892643147   -1.23968874629953
H           1.58269904176519   -2.67041309850770   -2.29054254633408
H           0.11234893527006   -2.07914096988428   -2.70019686265191
