    26
        -50.45564914  Gyration_radius:  2.41797296413 Dipole_moment: 3.083
 S          -0.48618577142001    0.53727127105872   -1.64183504181770
O           0.81351411082568    0.14459790329948   -1.15259710177547
O          -0.81876847522380    0.07051823410218   -2.94444455750274
O          -1.54530693521241    0.11599018316777   -0.60718739106822
O          -0.59061478718630    2.07953389795571   -1.59725232503477
H          -0.28261170278473    2.38170112205770   -0.69651208559988
H          -1.31359972881169   -0.88872221958167   -0.26433782701036
O           0.37222816277089   -0.88275326842828    2.30688191854201
H           0.28346566255154   -1.31953955546683    3.15515898141104
H          -0.33687812526262   -0.18870171361760    2.27707108764657
O          -1.45311495334674    1.01862540512224    2.01311386495339
H          -0.96670969120595    1.83032331803012    1.81132127967794
H          -1.82509181243633    0.73318119052194    1.16588246632915
O          -0.83825860194482   -2.10699364322551    0.17615383405639
H          -0.21699739891042   -1.83271819285290    0.88004272469991
H          -0.31007561581011   -2.37912113308992   -0.63430387291811
O           0.28441003695004    2.79543438601139    0.75835842590785
H           1.02474299559425    2.12895107272919    0.92819742873048
H           0.70053577950278    3.65787357034186    0.70839244126543
O           2.04575720730857    0.93109201027265    1.04614197336109
H           1.67716409212293    0.26992201783926    1.65401127846132
H           1.81663122456555    0.58752818448152    0.16004251233652
N           0.37648003839669   -2.47491081600828   -2.13106126158139
H           0.36389303097938   -3.30856836947702   -2.70618054699314
H           1.33656333745595   -2.16695225022748   -2.03552787281914
H          -0.11117206945830   -1.73356262503620   -2.62953032330505
