    26
        -50.45230145  Gyration_radius:  2.46678806548 Dipole_moment: 4.290
 S           1.18953801274110    0.51970749987000   -1.88540656373080
O           1.64580446915102    0.17009123082692   -0.54881716286937
O           1.52768931157523   -0.41158051922896   -2.89821445006375
O          -0.32487389360362    0.71105015959544   -1.84292197886728
O           1.75331202286099    1.91993702432579   -2.22189692310025
H           1.51376075661185    2.49212748882940   -1.45054599840675
H          -0.73976497618483    0.99522256222000   -0.90407072390314
O           0.87153395994922    3.05961446195100   -0.02484978582735
H          -0.08374104975049    2.92841128944415    0.02877924599895
H           1.24551278283872    2.61315036165516    0.74242754559917
O          -1.32528501743050    1.28443966923329    0.36386916828928
H          -1.92204620258974    0.48185994040825    0.39991438124038
H          -0.62849511690173    1.07985933132907    1.04536467796645
O           0.29275166505513   -2.11962646595446   -0.74836023469632
H           0.45119882838109   -2.44927332331806   -1.63573222429741
H           0.85881719354024   -1.33069423093527   -0.67319020936117
O           0.68699452046183    0.57386260961292    1.89563848627445
H           0.41818239589894   -0.31839842055584    2.18120778361205
H           1.23066906357696    0.41686431804847    1.10173061324954
O           0.07689876105580   -2.11764009833060    2.03706598209199
H           0.77816216291393   -2.65388619084293    2.41066483613969
H           0.11579777083933   -2.24712983993106    1.07543419477622
N          -2.38908194779446   -1.12747815795501    0.39594343193691
H          -1.71017130612973   -1.53281011904523   -0.24293536239863
H          -3.31351682969154   -1.40205567930832    0.09092011040691
H          -2.21964732737670   -1.53562490192739    1.30798117993319
