    26
        -50.45652496  Gyration_radius:  2.589721721 Dipole_moment: 4.748
 S          -0.60926972828247   -0.12263992406624   -0.54599385187249
O           0.70734644086051   -0.56142593263509   -0.06710423349358
O          -1.68959378476709   -0.97170340434984   -0.10280474429988
O          -0.80185154884319    1.30164522649726    0.06453988357384
O          -0.57518577085801    0.04872075431339   -2.00038114667583
H           0.61739468670692    0.56185681424485   -2.54405397258345
H          -1.73582435021593    1.33021707475639    0.45896899126868
O           1.89032883035851    1.76423961282523   -0.37909931781764
H           1.21484671320967    2.39576983053469   -0.11495729919187
H           1.53767040609110    0.89145863618984   -0.09062298948247
O          -2.11088944766916    0.29643569379249    3.48422649852571
H          -1.46127470948869   -0.35065463456890    3.12880372923094
H          -2.65096768358337   -0.18624415247880    4.11192002736440
O          -3.09747826016579    0.98873337947151    1.08629055076599
H          -2.84511618583332    0.85801498841733    2.02941260867948
H          -3.07331669817081    0.10819121883048    0.68193386241560
O          -0.55209546370937   -1.49316781009679    2.23109824624115
H          -1.08503941324341   -1.50552948820312    1.41314400464663
H           0.32008049000540   -1.22966621009824    1.92130382918225
O           1.62174601727587    0.86226042793674   -2.75048480910033
H           2.13404801000679   -0.06765622065669   -2.58498953690302
H           1.84738683930819    1.40440599961789   -1.92010795340876
N           2.57148252371740   -1.36310423266416   -2.02253827465691
H           2.33659947152758   -2.17658218912444   -2.57573650843133
H           1.95848972654092   -1.33907827159179   -1.20189697425242
H           3.53048291917699   -1.44449717687275   -1.71087063972231
