    26
        -50.47231572  Gyration_radius:  2.41622923848 Dipole_moment: 3.651
 S           0.33603739921917    0.43178818152110   -1.35602324503369
O          -0.79450500813524    0.58985472303414   -0.42955039995672
O           0.13142738244335   -0.66263333862519   -2.26812176908095
O           0.46516280569548    1.73660530829080   -2.16447940032206
O           1.57392055583062    0.26191520629241   -0.56867435822252
H           1.40526755096619   -1.04312139568421    0.26540358363112
H           0.40780521455294    2.47073946356418   -1.49078043770070
O           1.35225490706136    1.88670042696981    1.51109110885492
H           0.67886141474054    1.44119915383655    2.03572937056918
H           1.56019991385391    1.27766329861459    0.77036689722261
O          -0.70730889279197   -0.15680495303745    2.05950668611829
H          -1.60088800757916   -0.42363021746943    2.28491314921424
H          -0.77508859587266    0.22376346050257    1.14613894202622
O          -0.49809574146286   -2.88258660419128   -0.98284555478302
H          -1.39028268347153   -2.57381380201864   -0.71991012832671
H          -0.21850090035705   -2.21750877350161   -1.65064899747958
O           0.47101939335096    3.56801809486267   -0.32989276346761
H           1.18724780093372    4.18303272861189   -0.50248331382476
H           0.74234112890648    3.04348387113893    0.46434176930498
O          -2.61131072466374   -1.33490557915261   -0.37594248269306
H          -3.23216935385662   -1.23580966974893   -1.09912091845272
H          -1.99684191121292   -0.57030800778177   -0.44578393827133
N           1.00330748273677   -1.83656347081627    0.84972047653027
H           0.40704265266617   -2.42032748831570    0.15844504242296
H           0.37229790418438   -1.37371063330196    1.54153184479631
H           1.73079830236747   -2.38303997359610    1.29706883684231
