    26
        -50.46942737  Gyration_radius:  2.44004222384 Dipole_moment: 3.761
 S          -0.39816581605589    1.17671644342663   -1.26464293138834
O           0.39105152151302    1.47504454774796   -0.07015981142911
O           0.33715720197960    1.41213755508894   -2.48022178649109
O          -0.87754274657299   -0.22446200714453   -1.18881727764360
O          -1.65510679365132    2.07912277988778   -1.26225159515080
H          -2.15878221798355    1.87681756760968   -0.43044604564723
H           0.39870620726550   -1.07273528235713   -1.30044999353257
O           1.00177539142759   -2.30481377100434    1.34929662416771
H           1.09843824009939   -1.44744023570627    1.80156318530102
H           0.05722861520645   -2.49554929373809    1.38555844944006
O          -1.67219493899018   -0.89414132902538    1.23823034517296
H          -1.40937770815225   -0.74571265342840    0.30256357547015
H          -0.95655304969230   -0.50668949034601    1.76922332511737
O           2.65711780236626    0.76392637636168   -1.46994502296886
H           1.93264070274493    1.09817343928689   -2.04861467239654
H           2.50474140610324    1.23665210349571   -0.64410522156409
O           0.65537227036709    0.25339991846657    2.17941462328229
H           0.79801879597274    0.91626383524637    2.85571871268822
H           0.57926211707893    0.74977922727980    1.32042840371381
O          -3.03497459410515    1.35918433642362    0.84594673545972
H          -2.64454467277375    0.48842753008086    1.10529634725347
H          -3.92631812761360    1.17727912097616    0.54205766615077
N           1.36309064048303   -1.51638671403532   -1.17663717764633
H           2.04596449401460   -0.70637306346892   -1.26883860578170
H           1.53740391145179   -2.22192141269666   -1.88419157202671
H           1.37559134750516   -1.92669953843116   -0.20597628954654
