    26
        -50.44413677  Gyration_radius:  2.61911678917 Dipole_moment: 11.908
 S          -0.30303898723429   -2.11918153777508   -1.67451775988922
O          -1.13813831998653   -1.05408308789233   -1.05814753075985
O          -0.76429160273672   -2.50395853415959   -2.96327454694007
O           1.10346263036241   -1.64072690442188   -1.65950592134072
O          -0.37908847603300   -3.33991773966617   -0.70512149472330
H           0.21707011065135   -3.12380223251281    0.04690083137505
H           1.03601184833377   -0.07873107581444   -1.79541184392443
O           1.45747727837040   -2.29308688202894    0.87361744086096
H           1.18553912378234   -1.49718718984327    1.35506310200945
H           1.64624671673054   -2.00632723179863   -0.03933155956619
O          -1.66100842383311    2.48774581501178    0.57226014701607
H          -1.83901409147433    1.52651237261845    0.79200204274326
H          -2.21947493249600    2.99561151780811    1.16179019765692
O          -1.87354411940430   -0.01552855984851    1.26662278059576
H          -1.77398544054826   -0.51504143118744    0.43131795411699
H          -1.04155097916916   -0.15028529140616    1.74118191224323
O           0.92878822630838    2.40446134460068    0.51060252694445
H           1.31646563895213    3.27878196457453    0.56451356031914
H          -0.06275527047931    2.52146605729875    0.57269569604287
O           0.81938239556079    0.14875113099552    2.11279022309969
H           0.99198142366173    0.93910969938558    1.57228332429063
H           1.29697889632864    0.25267616490566    2.93710066761293
N           0.43757799245385    0.80095510272308   -1.69493511302807
H           0.31448861049999    1.28965442368195   -2.57418046894830
H           0.75820236034657    1.43124396348175   -0.94086470104495
H          -0.45378259895489    0.26088812128223   -1.40545145677186
