    26
        -50.44823138  Gyration_radius:  2.53299843129 Dipole_moment: 6.816
 S          -0.54252256949220    0.10271114676746    2.69461079455645
O           0.73950805344922    0.46708301522700    2.12406318603621
O          -0.67580891739959    0.24074523600322    4.09435036156722
O          -1.63822461146408    0.88805263372201    1.95124667443474
O          -0.80326869764903   -1.37561380243734    2.27252022072087
H          -1.51647518526893   -1.42398401066253    1.56923419352212
H          -1.27781084237828    1.19470894492780    1.02854813906395
O          -2.50910719025118   -1.33238561990234    0.33627625405213
H          -2.93405571753240   -0.47264099268714    0.40807752631986
H          -1.93282329637909   -1.30611970216736   -0.44928438372168
O           1.94539848964901    1.43195816223181   -0.13436344620659
H           1.82250504248511    1.44553994020454    0.82532746794626
H           2.18136468029605    0.51733941380256   -0.32649717850323
O           1.42546873614905   -1.43657766873060    0.42339821210780
H           1.20715873789023   -0.76986679897584    1.11248136199641
H           1.33013478151064   -2.28759085900305    0.85450663653654
O          -0.77223788133587    1.47467836775375   -0.32879959439010
H           0.17929164428695    1.69374498398961   -0.26238953201664
H          -0.78312340158490    0.60806563771385   -0.80461561996917
O          -0.46807106817365   -0.92264959283022   -1.42056030475575
H           0.23821497496333   -1.22848597624060   -0.81123114678139
H           0.01212727559016   -0.54266215191758   -2.19229491337777
N           1.03852604270647    0.56892993565147   -3.11518958063751
H           1.46602650813908    1.20253732585567   -2.44756548869295
H           0.48596059450720    1.12781565058947   -3.75372306757669
H           1.78184380729187    0.13466678110957   -3.64812677221959
