    26
        -50.45051065  Gyration_radius:  2.44908740814 Dipole_moment: 6.555
 S          -0.80920505799554    2.00267166295072   -0.11767206043835
O          -0.94443969500314    1.14438717379565    1.04208551923746
O          -1.13830388528921    3.36480793325141    0.06431319080058
O           0.66964981457051    1.89061924483954   -0.60149732409937
O          -1.60039664707751    1.37229682757448   -1.27722365863476
H          -1.91716717936017    0.40726216447676   -1.04920671907515
H           0.71937280426520    1.18295610462217   -1.31663461803628
O           0.65553368241973    0.03971117432255   -2.37708941356705
H           0.57044809893122   -0.80316421077641   -1.87963481211597
H          -0.18559931649292    0.18744808863120   -2.81926295170895
O           0.77178844889097   -0.87232511370853    1.42303487091609
H           1.65876591731981   -0.45609504310046    1.31762472042848
H           0.15026805277371   -0.11844535531906    1.38510268730719
O          -2.25887772424787   -0.99630653028398   -0.76953404569775
H          -2.50506759308431   -1.03860279526838    0.18424109271283
H          -1.44145962677283   -1.52213813943663   -0.84991258277288
O           0.23967458871639   -2.07049975733844   -0.78608111155123
H           0.63283567471632   -2.94328290780821   -0.80482739627372
H           0.47867167232446   -1.66100953634580    0.10690614737547
O          -2.43616185184492   -0.93014667549244    1.89400294228057
H          -1.74006778216437   -1.45976212549897    2.29182472491561
H          -2.07192969193599   -0.03202189815109    1.82575513687239
N           2.97083352672297    0.61807703553355    0.86442658543754
H           3.67655012717024    0.30663573505060    0.20881787596284
H           3.44451958187312    1.06116076766237    1.64161923678316
H           2.40976406055224    1.32576619581060    0.39882196292602
