    26
        -50.44686768  Gyration_radius:  2.50530966821 Dipole_moment: 6.095
 S          -2.04316786898286   -0.98218078448733    0.05674678322573
O          -0.73232859433025   -1.61061626367303    0.03009869699755
O          -3.05508691271035   -1.69502882521119    0.74477857810482
O          -1.84929836485518    0.44524948728465    0.66602597408737
O          -2.47033486720221   -0.65841111563729   -1.36602491716376
H          -1.68742259859190   -0.17100087779111   -1.87217294192235
H          -1.34248538482883    0.35867954262563    1.52283511875327
O           1.95413241294727    1.03459494832504    1.66234422476490
H           2.71008061435535    1.07789441084010    2.25036484746844
H           2.01009042214016    0.14651495681370    1.21743964335759
O           1.91900576332806   -1.35073592719321    0.58191139454099
H           0.96810848428068   -1.54571676964940    0.64601852194734
H           2.12231298426051   -1.44643974161539   -0.35527614075021
O          -0.52326243459088    0.43022177477943   -2.49647919435850
H          -0.17776094327530    1.10548971623782   -1.84902822740176
H           0.12715971127534   -0.29760332976411   -2.51267269892804
O          -0.39878713093574    0.44738966951716    2.79624228908016
H          -0.66590733545465    1.15736890645974    3.38325044769418
H           0.48217676237775    0.69223887509576    2.42346010651519
O           0.85207279995621   -1.87081493628215   -2.07543869441629
H           0.23107610303283   -1.88800700470679   -1.31387938847594
H           0.62868281437546   -2.62334302768636   -2.62471403988461
N           0.23276847733239    2.15598732550882   -0.60266777365671
H           0.36223363396147    3.12819632977025   -0.85103107777014
H           0.98298070018521    1.88884683301897    0.02574033752051
H          -0.63703923805144    2.07122583742388   -0.08787185933074
