    26
        -50.45001950  Gyration_radius:  2.48042739441 Dipole_moment: 2.752
 S          -0.64681742308388   -0.99509117099207   -1.10562967080702
O           0.03348101153044   -0.12509324934580   -2.02400687599260
O           0.05579789947559   -2.17136890498207   -0.70788111882260
O          -0.98147467907459   -0.16304727733931    0.16304159964169
O          -2.03031157074996   -1.36364672308289   -1.65647950842140
H          -2.53880113986358   -0.49158280998800   -1.70986823391439
H          -0.90898698660949   -0.83534680781816    0.98146353644261
O          -0.56335861049347   -1.84806557934055    1.92232253445951
H          -0.19215782673718   -2.45472992765587    1.26495036752003
H           0.20694874790079   -1.43463653481268    2.40143057616727
O          -0.80552208340068    2.34732270424605   -1.45972301736048
H          -0.29616297845425    2.62428286433428   -0.69305346671992
H          -0.36576016630396    1.54989351711205   -1.80729658119068
O           1.41630470640874   -0.46796273522886    2.95924724587442
H           1.30523082827955   -0.08997387050397    3.83278435953142
H           1.41018562458948    0.29080241423701    2.32261505489261
O           1.16170671961227    1.38734431083304    1.06635121826011
H           0.30899423636301    1.05387730330144    0.75742997675438
H           1.82399368641853    0.97982909289652    0.45587555131888
O          -3.10132500881430    0.95763556895885   -1.49232896787568
H          -3.43198164260954    1.01951166282192   -0.59281995525157
H          -2.34415894208382    1.58479652402579   -1.54816390571898
N           2.56851912369353   -0.14544543417667   -0.63971479928192
H           3.44216214345189    0.05113937895750   -1.11231715553067
H           1.83476908727903   -0.18862463540047   -1.34193019519191
H           2.63872525327034   -1.07181969105692   -0.23629856877876
