    26
        -50.45589904  Gyration_radius:  2.47837820061 Dipole_moment: 4.969
 S           1.16329525420349    1.07285282908172    0.93748864393663
O          -0.03927657816558    1.31030942433787    0.17443519840999
O           0.93449886626737    0.71702520238583    2.30615491771086
O           1.98000374674261   -0.03255607115893    0.24055711049085
O           2.07633821723997    2.28806958798343    0.83496850698808
H           1.93726222712384    2.62871649458961   -0.11930644119428
H           1.43370769463097   -0.95091678051509    0.22794619070934
O          -0.76379737819636   -1.30976486899436    2.39699003201561
H          -0.22151621788488   -0.49104261777628    2.43269774813210
H          -0.60433758562790   -1.76337045888729    3.22753979484656
O           1.53408681670486    0.42575394933535   -2.49901499459337
H           0.65594959333945    0.02279154015441   -2.50918514990706
H           1.98489195358025    0.06245910365051   -1.72611523667959
O           1.43644154627692    2.90891947796350   -1.53778489692616
H           1.55454828909424    2.06769212370101   -2.04459997236778
H           0.49011358058681    2.97289327796413   -1.37278360726117
O          -0.96580629484743   -0.58777290880400   -1.44981061826944
H          -1.83117651158067   -0.85635836123419   -1.06703196522815
H          -0.71931188715119    0.19900139547272   -0.92455440134501
O           0.52759325879376   -2.03613485034117    0.13896193942689
H           0.00461632362037   -1.96873239983378    0.96487736878613
H          -0.06283283434088   -1.67829624328270   -0.57951518580499
N          -2.97970983542913   -1.22028996208537    0.25556690992793
H          -3.48328693230005   -2.09858283616050    0.25186207829260
H          -3.65737445891485   -0.47553024039537    0.36016813524641
H          -2.38492084372244   -1.20713579715745    1.07948790469046
