    26
        -50.45589906  Gyration_radius:  2.47841901448 Dipole_moment: 4.970
 S          -1.72909554212091    0.60960337670440    0.15556429881559
O          -1.12915612361043   -0.68540657166748   -0.06257696244498
O          -1.84149718602369    0.98455372220709    1.53355630464882
O          -0.90987963187880    1.66807280373116   -0.60820563297036
O          -3.08523185566146    0.66255653291947   -0.53666501967085
H          -2.95532977020049    0.11296813685511   -1.38943985886471
H           0.08627661601962    1.71909541241659   -0.22544168677601
O          -2.44920643119317   -0.81861118195916   -2.49255989207551
H          -1.61920329161898   -0.40927885772110   -2.84186614950012
H          -2.15729072920430   -1.56627706917916   -1.96095694579842
O          -0.08849831003589    0.33176284740345   -2.94375005279145
H          -0.26596191097523    1.09515511148188   -2.37958235592862
H           0.62333748741936   -0.15886565968529   -2.51211942641710
O           0.52497853982435    0.72969496653396    2.68927244107274
H           0.52540164138212    1.32090580988050    3.44520556476288
H          -0.39598160338002    0.73658048475194    2.34678822545260
O           1.40309738723076    1.55021737890493    0.27018574832592
H           1.62525085145440    0.69363661640502   -0.18759159360684
H           1.26716224699654    1.31609634417261    1.21182478655963
O           1.43152280867685   -0.84705465586647   -0.78145441773097
H           1.88357298840000   -1.29406405116174   -0.03089652341760
H           0.48353445514451   -0.92976891944687   -0.55761307590302
N           2.19040510857726   -1.66586614970335    1.69209711677543
H           1.62131015614072   -0.97622284163109    2.17508144645097
H           3.13239554109080   -1.59981611105862    2.05714568441951
H           1.82808654754129   -2.57966745524822    1.93399794667152
