    26
        -50.44247426  Gyration_radius:  2.49947182031 Dipole_moment: 5.663
 S          -1.03135653333211    1.91643923497694   -1.03831544898606
O          -1.32887527330292    0.71547675206339   -1.75968458553126
O          -1.68879663607711    3.11732730358155   -1.39852957372846
O          -1.26302227185870    1.63458396732317    0.49248020909609
O           0.50165958282733    2.16472791904709   -1.04694344439565
H           1.00278047922980    1.30266630635135   -1.19291636429381
H          -1.78675911193995    0.78726954596263    0.65165386244942
O           1.92114572902464   -0.61135356628960    1.20763076250151
H           1.67709842168012    0.24358697129810    1.61545310811937
H           1.14361212306200   -1.18832061147945    1.29733646798844
O          -2.43653305402272   -0.52127445460190    1.19885153631441
H          -1.69448986526800   -1.17225589766842    1.16027771765497
H          -2.63369016825547   -0.37796333713667    2.12704806459414
O           1.97671263585346    0.07258830182066   -1.28882713493552
H           2.85464678540601    0.40935977018251   -1.47714736006528
H           1.99879152669074   -0.25130442242571   -0.33614205773862
O           1.07972331284041    1.87641397548491    1.89490506300443
H           0.19603987646156    1.87433372744505    1.49117958949936
H           1.56941168057992    2.56424468080687    1.43936686565142
O          -0.35760868203171   -2.16624104135035    1.01835130324437
H          -0.42719292425074   -3.09708114139253    1.23337746211796
H          -0.30240967263130   -2.10574324224899   -0.00453886915733
N          -0.25243716551741   -1.89222374654656   -1.55711325686332
H          -0.77379185024742   -1.02287042155704   -1.68751363040993
H          -0.64129026955557   -2.58084758673580   -2.18861499944840
H           0.69663131463423   -1.69153898692735   -1.85162530669224
