    26
        -50.45108765  Gyration_radius:  2.46643711329 Dipole_moment: 8.239
 S           1.05364323697258    0.32294831808125   -1.97723124575437
O           1.53096978725743    1.20388629604655   -0.87748399491063
O           2.04035187774819    0.10857622287753   -2.97765072729472
O           0.57552251272077   -0.94445128364159   -1.35173088509975
O          -0.18851766839856    0.99068404417319   -2.59977769111685
H          -0.90880811626333    1.03546460659058   -1.89701731998648
H           1.30362868898041   -1.08916279447600   -0.10054733816996
O           0.06172294798421    0.16512475143027    2.50652699116450
H          -0.29815406394599    0.34886383178900    3.37524266897479
H          -0.01032680749545    0.99657878353067    1.98617234123171
O          -1.92472257604201    1.17319769844920   -0.71420966862638
H          -1.47780111834125    1.77575962151248   -0.10311434837179
H          -2.09089474234621    0.35451654615774   -0.18792881938306
O          -2.07514350864566   -0.93025619527170    0.91889081515706
H          -1.83926408658278   -1.71452724159558    0.38453508487753
H          -1.32831509560195   -0.76508564659460    1.50843704685619
O           0.03521105007384    2.30959582219160    0.88940021787750
H           0.59989052023750    1.92535452254262    0.15742196867144
H           0.33203125221612    3.21317660996873    1.00406778388804
O          -1.21283306599913   -2.83855930208500   -0.79970509202723
H          -0.53410862983167   -2.21198183494046   -1.11676220374956
H          -1.80301041281199   -2.98643499562850   -1.54047129994734
N           1.92698584937687   -0.73554450307666    0.73464729284344
H           2.12752096777800    0.20145483307987    0.29943943192325
H           2.75189567572035   -1.30056453070585    0.89759184422913
H           1.35252553526498   -0.60861418036179    1.58125711669403
