    26
        -50.44816322  Gyration_radius:  2.51809515195 Dipole_moment: 5.265
 S           1.09356292006316    2.18472723508215   -0.08144639759513
O           1.89111803766177    1.35643207530989    0.79445764834547
O           1.79257191560006    2.88867707432746   -1.09309967888363
O           0.00826884624594    1.25950528590805   -0.73927730454657
O           0.20439949930676    3.10866285724377    0.75346229714181
H          -0.02808416545688    2.56402105200585    1.57443637663621
H           0.47705652629553    0.51564412880779   -1.22730146393055
O          -0.02575876087356    1.48432399069968    2.70276384419371
H           0.92087731712323    1.31787223871952    2.61137883452037
H          -0.46076309709979    0.64651203888224    2.42794129963434
O          -2.30618563948217   -0.25623273409320   -0.30393223410673
H          -1.81338856624871    0.53577777614441   -0.54907438714195
H          -2.06033201713399   -0.93202486676420   -0.98340065383627
O          -0.96283472986404   -0.88994973096546    1.82171231890803
H          -1.52329034160685   -1.39904470713328    2.40880497242316
H          -1.52346499184346   -0.66493917447641    1.02048625630592
O           1.35064975178846   -0.68989207884048   -1.75137778182655
H           1.47415537084790   -1.09616805757442   -0.84151389511445
H           2.20527269113297   -0.34070346405923   -2.01303925342760
O           1.56013658215679   -1.31075340594460    0.75339331260500
H           1.86847535631586   -0.40105379293662    0.91782639173755
H           0.67408428600624   -1.34810142868070    1.15284395881009
N          -1.34427943202211   -1.98804156593594   -2.15520336471984
H          -1.28907354206433   -2.96143918584084   -1.88339010573309
H          -0.39587342722921   -1.63980531145645   -2.25338496002784
H          -1.78730037961825   -1.94400622842188   -3.06406604037218
