    26
        -50.45284130  Gyration_radius:  2.44714189329 Dipole_moment: 3.824
 S          -0.69424258515971    0.98454485571414   -1.30582389551939
O           0.05524813107648    1.45923489770254   -0.16065029437536
O           0.05916678214404    0.81970376308780   -2.49719522970687
O          -1.41245254132479   -0.32426903833404   -0.89918067233414
O          -1.89134286894834    1.91219704476035   -1.54123065355734
H          -2.46793697532523    1.80581650616454   -0.72561087011759
H          -0.76739579513731   -1.11220763838063   -0.73856959071091
O           0.81275383257842   -1.30343155458450    1.91232062350683
H           1.55080736396800   -0.70472189571863    1.61982133432988
H           0.09255935746599   -0.70988675836152    2.17101635855411
O          -1.02748568542270    0.84860027276763    2.11495129391623
H          -0.55085992226549    1.10138412683272    1.28564059525302
H          -0.77235171806714    1.49327973069669    2.77832285072276
O          -3.20942689721601    1.31299970757542    0.59038323180694
H          -3.55052972671225    0.45141166504731    0.33728213425641
H          -2.52359991571602    1.14264314967200    1.27207378000501
O           2.45735631961118    0.42686027007218    0.80149291083074
H           1.77109669924764    1.04995752106775    0.52832602846388
H           2.68520457267034   -0.03960791149015   -0.03502930011627
O           0.09247993610417   -2.26336112119755   -0.34789680215283
H           0.43265087302207   -1.94908186920649    0.55909683849799
H          -0.44436242855099   -3.04025273567185   -0.17773650888960
N           2.42814626425021   -0.73897106272467   -1.64651906921581
H           1.75227231156952   -0.10848729078844   -2.07106693163764
H           1.95185030224712   -1.62272649560730   -1.50634661936554
H           3.17039431387511   -0.89162813908940   -2.31787153241132
