    26
        -50.45212772  Gyration_radius:  2.45256954039 Dipole_moment: 5.973
 S           1.02460071246544    1.43349801132361    1.47712574931730
O           0.21722399218700    1.85143636209905    0.34911773444436
O           0.81285138816635    2.15467916144383    2.67921548338767
O           0.78423953791850   -0.08714641882287    1.69708832104172
O           2.50193048303679    1.43197013614973    1.06988234464626
H           2.55426125639743    0.73413991454224    0.34258832075015
H          -0.18970306288574   -0.25424306246808    1.92018239849678
O           2.48071901072115   -0.29416642864579   -0.82688265151277
H           3.31251274257120   -0.27328053100666   -1.30466587713443
H           1.80079916436717    0.14134964934831   -1.42834471001401
O           0.66843401153801    0.98430923281430   -2.15406750419064
H          -0.11727828064089    0.42558114823655   -2.28727469848386
H           0.46566766398634    1.51731468670644   -1.36377056665631
O          -1.70530217295752   -0.42647143272823    2.13302967454988
H          -1.95596719674291    0.09638558948342    2.89746350705930
H          -2.06720210207899    0.06055728408000    1.33077497523389
O          -1.48978097538392   -0.70956004683460   -1.99236184896188
H          -1.98497012967078   -1.26468019954479   -2.59511973907694
H          -1.00620134327085   -1.31497045777469   -1.35692887971182
O          -2.31178985897712    0.96433251566430    0.03806063166965
H          -2.18648245290894    0.41666362779510   -0.75715131085609
H          -1.49852477706802    1.49554697323783    0.10845860516457
N          -0.16875830073919   -2.17134699431228   -0.21131147128917
H           0.09082988135923   -3.13753047926288   -0.36713837018931
H          -0.71534483469540   -2.12827324253006    0.64153225177438
H           0.68323564323910   -1.64609501929894   -0.03950235914751
