    26
        -50.45188996  Gyration_radius:  2.46258812357 Dipole_moment: 2.887
 S           0.66687595768969   -1.18421323725501    1.32556765554506
O           1.88744480499281   -0.43480910507109    1.15770036093437
O          -0.00219552174124   -1.03563508475677    2.57482621252903
O          -0.29313155821568   -0.80121133934169    0.17261903400486
O           0.91449670085344   -2.66770670107186    1.01748350429202
H           1.38943498268009   -2.62422685589844    0.13456409482152
H          -0.52137958660305    0.20248941081146    0.17933833362663
O          -1.01549829432251    1.62634183454454    0.17903194381725
H          -1.58148874823417    1.53122375915933    0.99412537520599
O           0.83022794782216   -0.02675744094015   -2.52728695615763
H           1.21385230707188    0.23187753741964   -3.36704892731999
O           2.16576210688619   -1.97110534065945   -1.10706082270113
H           2.62185941119426   -1.33253358525860   -0.54378790283820
H           1.58495632681865   -1.43916558148587   -1.68802120432221
O          -1.87629894361559    0.37725306630199   -2.02793774175960
H          -0.95655431504431    0.22555199323830   -2.31381224815315
H          -2.16035130403298   -0.46130993064477   -1.65857217612778
H          -1.57159453921663    1.47924063570978   -0.61371362814051
O           1.65098726750179    1.57811670820907   -0.61353869209123
H           1.15885648917034    0.63042913530968   -1.85449382950136
H           0.83436657406563    1.99918364160161   -0.31367950699930
H           1.89011581215170    0.94968667419922    0.09312582250266
N          -2.16589041952217    0.91757346874391    2.45638792631200
H          -3.06987579546749    0.46113620383664    2.47657488262322
H          -2.13588603694561    1.56639073753557    3.23342726029005
H          -1.45909164613896    0.20217940536101    2.63418122739566
