    26
        -50.45188996  Gyration_radius:  2.46257509837 Dipole_moment: 2.887
 S          -1.66145201214288   -0.56853425528720    0.72124267396586
O          -2.12558952836103   -0.41134195739147   -0.63499976193908
O          -1.60962860967569   -1.90086177551830    1.22380022415852
O          -0.26025666708767    0.08191887825500    0.82669602898633
O          -2.47277255964949    0.33330201550614    1.66221425489564
H          -2.43544874410598    1.21870230050015    1.19144087679056
H           0.41871163116168   -0.36309175966617    0.19394125708055
O           0.42752808455311    2.46471243816650   -0.90509913008799
H           0.62547820067019    3.20738121307205   -1.47828855217523
O           1.51396704004085   -1.02690031907442   -0.60072874101944
H           1.54726350496103   -1.85401049168101   -0.04520161284905
O          -2.16296632289002    2.26365367375906    0.00619757187848
H          -1.21146872163263    2.43825464085935   -0.14225913579767
H          -2.41769503993946    1.62724519137122   -0.67434223309910
O           2.45496982297649    1.21137165594780    0.52896792647114
H           2.19061827265406   -0.39765008036234   -0.27582877692477
H           1.80742758001339    1.74633518834195    0.03375176052574
H           2.08672940112286    1.13437883005698    1.41148699506248
O          -0.17818954628861    0.34228410375987   -2.33344068341022
H          -0.97509511681253    0.00989985672492   -1.87956843672536
H           0.23173023221501    1.69268844157729   -1.50354907886394
H           0.52282289223758   -0.28340281722531   -2.10712916665687
N           1.05859652578831   -3.06413162601302    1.02854230425198
H           1.49697204113163   -3.12562981100408    1.93954106565729
H           1.03862082199936   -3.99808743409331    0.63743879509389
H           0.08912680704345   -2.77848608062488    1.17517356476606
