    26
        -50.46788074  Gyration_radius:  2.39863115882 Dipole_moment: 5.649
 S          -1.29256184758853   -0.24642187137943   -1.23583721965674
O          -1.19486890753775   -0.46461886050761    0.20327317720079
O          -2.58275913600201    0.25363580197725   -1.62685806784722
O          -0.19425645768953    0.65013447437461   -1.66724608651905
O          -1.04323805885240   -1.61701711957408   -1.93748202524985
H          -0.21683262819608   -1.98763582635458   -1.54500008842567
H          -0.17940673180827    1.66440157738831   -0.54339972820978
O           1.12672087497126   -2.61836996466315   -0.75433819042798
H           1.08748401114319   -3.57409838936270   -0.81757793714799
O           1.76766129611694    0.79422881833765    1.56062963366667
H           2.57570653764249    1.16376917549798    1.91882607430284
O          -2.86394201121328    1.64971053456572    0.60657032039870
H          -2.91810830090112    1.23030020298653   -0.28388540973133
H          -2.94392918203906    0.90729608627643    1.21277345486730
O           2.22222884562526   -0.05514296859346   -0.86714374174270
H           1.39129217414495    0.24166268376467   -1.29943606843162
H           2.19018378326959   -1.01849164355099   -0.92636312220078
H           1.99764927420408    0.45553151899610    0.64679570772826
O           0.53517065204123   -1.78294999938344    1.64382049012377
H           1.08996035543726   -1.03781031813743    1.90964163121274
H          -0.24474855730086   -1.35209093581997    1.22894892052901
H           0.95013617445355   -2.38947303206396    0.20485469732156
N          -0.27712733669268    2.19247880248526    0.38854817622444
H          -0.06026144489005    3.17864605733942    0.28733371019372
H           0.37551219289104    1.72231516865261    1.04849431441060
H          -1.29766558121704    2.04001003673353    0.64405738741880
