    26
        -50.46788075  Gyration_radius:  2.39857518618 Dipole_moment: 5.649
 S           0.65463577325396    0.74222932775090    1.51049350647770
O           0.82295272753910    1.00120855229610    0.08477887203443
O           0.59604214445410    1.95358328336927    2.28308719648040
O          -0.54434695225520   -0.10490853852507    1.71264106457878
O           1.87651941817032   -0.10494047494530    1.98215123442457
H           1.96064603564056   -0.85428546960485    1.34517996125716
H          -1.51563905961246    0.51486134312100    0.72995954978231
O           2.12282092279746   -2.03821142202659    0.16188460227105
H           3.04113786617239   -2.31235861608648    0.13954834782427
O          -1.32761784893387   -0.91486988747125   -1.89590375519038
H          -1.93721846733604   -1.43314673398991   -2.42277945537794
O          -0.64727554861909    3.27784580222955    0.35525663616807
H           0.07857474839244    3.29939032258817   -0.27526714061713
H          -0.22809958672618    2.94277840316403    1.18219093006438
O           1.50600578399526   -0.55676523327971   -1.89323921570671
H           0.62010418141805   -0.75650530476753   -2.22362743355794
H           1.35141312893677    0.16349264416991   -1.24261372603114
H           1.95644663599064   -1.53222555624242   -0.68665751140404
O          -0.65542011112178   -2.28383664476713    0.22419484654827
H          -1.07598607547376   -1.48969695186549   -1.11544851868380
H          -0.66765233823148   -1.56287909598119    0.89178479262755
H           0.26783784553592   -2.56561662392113    0.19557216757530
N          -1.98888119953817    1.03308771747646   -0.08500108154008
H          -1.75685307750312    0.48658303450429   -0.93930522132057
H          -1.51821299430954    1.98614692318546   -0.06793732750888
H          -2.99193394263425    1.10903920963174    0.04905670880756
