    26
        -50.44598991  Gyration_radius:  2.51204277438 Dipole_moment: 4.276
 S          -0.15811534031295    1.28637590505026    2.07059052422670
O          -1.20222744621989    0.46105182250635    1.50402564971503
O          -0.06761166277249    1.32391333628583    3.48248230758110
O           1.18274210661947    0.78420765074111    1.44414291067804
O          -0.24353177017251    2.71083062583716    1.49197861226038
H          -0.47135549607104    2.57726551928334    0.52580813463695
H           1.11612967593142   -0.22931794709784    1.31294617736877
O           1.02548278816109   -1.70660982587239    1.02551220554395
H           0.41454185324133   -2.07314927363661    1.66696957133553
O           1.01948227184077    0.46656185731347   -2.18724398717446
H           1.34685104735321    0.74534719622495   -3.04333207835781
O          -0.91977042123234    1.81154501057918   -0.81108576052220
H          -1.26377348432830    1.10382970005926   -0.24504436969604
H          -0.21397306847020    1.40783399744910   -1.35221142642429
O           3.01863913000818    0.02901476353655   -0.49041017623927
H           2.90621605340127   -0.87484021494853   -0.17898295194368
H           1.81120262320540    0.33487621180833   -1.60945122278937
H           2.73762449837003    0.59181033665314    0.24240889726006
O          -0.17921620784457   -1.85906072370891   -1.24526308807259
H          -1.12264408736553   -1.66631469896897   -1.02066234257392
H           0.14618002567528   -1.09350757099504   -1.74362029285063
H           0.57715167617437   -1.81844159227060    0.12271258256562
N          -2.65105792011998   -1.17672578391008   -0.38411189756464
H          -3.27100834276604   -1.92338093467364   -0.09678209665597
H          -3.19401969039640   -0.52371747909068   -0.93601824524865
H          -2.34393882196223   -0.68939788816874    0.45464234296682
