    26
        -50.45755833  Gyration_radius:  2.4072435581 Dipole_moment: 7.011
 S           0.08094654823340    1.24418485395341    1.57083320703944
O           1.47973575713878    1.17267415398439    1.92043437214774
O          -0.77607237564485    2.05232445113533    2.36807212753699
O           0.03455520980885    1.89656373649751    0.08212859326921
O          -0.48295204417808   -0.10833995082900    1.34295380288267
H           0.24980347022234   -1.38147633069660    0.80254786973152
H           0.79974851006182    1.52419758544008   -0.41805890343744
O           1.89083436676400    0.79315047504771   -1.43937383751990
H           2.53331207785794    1.41183058709055   -1.78873802075236
O           0.67974463966476   -2.17576436675055    0.37523053076951
H           0.42020529797822   -2.93642513310663    0.89542114163927
O          -3.05529768842595   -0.26341281165159    1.05833543016471
H          -3.38563305540602   -1.04999571851035    1.49360222516167
H          -2.13024205743094   -0.12854830004954    1.38285120181464
O           2.89162499060733   -0.51256074582516    0.51335698594267
H           2.33943484634339   -1.30963056882237    0.52765849304531
H           2.37910445469682    0.25163734188719   -0.73131367072693
H           2.48409244800161    0.10084536012549    1.17331428684352
O          -0.02062348668353   -1.10391795737190   -2.01381498016228
H          -1.22702300004618   -0.20704439730270   -1.58109618266523
H           0.71440443966473   -0.46944780524543   -2.06159532925777
H           0.20444492095850   -1.67269342810686   -1.25113566542461
N          -1.89082583604713    0.53688081550264   -1.18163674297223
H          -2.51622425449781    0.12111979393887   -0.45016836978674
H          -2.42741444494584    0.99625331831380   -1.90980431428517
H          -1.26968371466036    1.21759504162633   -0.68000422090590
