    26
        -50.46788073  Gyration_radius:  2.39858726068 Dipole_moment: 5.649
 S           0.98662806151544   -0.60444112726738    1.38615841589132
O          -0.20510758091988   -1.07923458867576    0.69154954264069
O           1.87058650750131   -1.67796030157951    1.75187769323487
O           1.66439371688879    0.41333591436396    0.54893223194929
O           0.51598562942459    0.13118094662878    2.67858999427513
H          -0.18630214356630    0.76651838874201    2.40026953298542
H           1.53928578842072   -0.20269224228593   -0.82841458143508
O          -1.45454231973200    1.74153016104532    1.88179293402044
H          -2.04205740413313    1.88524506858393    2.62551553592805
O          -0.95010773957298    0.80934434331331   -2.15303236308588
H          -1.12969338788384    1.32589189757904   -2.93966957498426
O           1.27463337507137   -3.08124862985313   -0.41404777282379
H           1.63876237780055   -2.69242380957547    0.41538612737354
H           0.36291965924430   -3.28725792962506   -0.18755742812818
O           0.11519697799288    2.35882087425363   -0.34031568198087
H          -0.48160254485521    2.50896519540320    0.40391804939843
H          -0.57384671928570    1.44856942691971   -1.48032287913139
H           0.79608876305927    1.74603873790574    0.01526491269950
O          -2.47693592328581    0.08296829838170    0.14894342597006
H          -1.72952739990266   -0.51249679378953    0.37874648034383
H          -1.94649101194130    1.14871019282555    1.24132411451258
H          -2.28151521754599    0.35028447576092   -0.75891463196530
N           1.24939127051283   -0.76197516371888   -1.70022615456568
H           1.93676326936051   -0.68483745206053   -2.44278484453041
H           0.32782528017144   -0.37562429990516   -1.98958053451489
H           1.17926872377092   -1.75721158220187   -1.33340254353250
