    26
        -50.44312308  Gyration_radius:  2.51354304954 Dipole_moment: 5.524
 S          -0.09411356047406   -0.47949144479579    1.48905647512361
O          -1.18555480883742   -0.14061807099647    0.60570348269366
O          -0.31232105888651   -1.52324284682581    2.42037034199429
O           1.12856783703698   -0.83867336311175    0.57466428788152
O           0.44162170900310    0.78919358032285    2.16204922245258
H           0.33982620704614    1.51601240165191    1.46775504539317
H           0.87468662038905   -1.50099904829476   -0.13800539153987
O           0.50815019600130   -2.35121013944201   -1.42065052737724
H           0.04214193060106   -3.15798208167793   -1.19449930775083
O           0.79765134037721    1.44854198705535   -2.14850488990452
H           1.10612156777115    2.09219088628701   -2.78853964003280
O          -0.08509958742025    2.39060853728818    0.24261443008466
H          -1.01630667093484    2.14836277429914    0.21224578991832
H           0.29711584937859    2.08324285006150   -0.60677267528357
O           2.63116464942281   -0.42831814948097   -1.75807032087813
H           1.52875982998676    0.79029365576727   -2.03569205297288
H           2.68567079418086   -0.43376802164624   -0.79584791567052
H           2.19189748537257   -1.25429628809218   -1.99477458926925
O          -1.18238791545493   -0.50104447894559   -2.05254528382654
H          -0.17714658499538   -1.72078681112539   -1.80041917431040
H          -1.41631354706038   -0.35744898657215   -1.11699843614649
H          -0.62316626313781    0.25552357497238   -2.29098575771780
N          -2.35211891922753    0.43849224549667    3.33259124435490
H          -2.26838816646646   -0.47498018318635    3.76280611801374
H          -1.49181541655912    0.93144242978655    3.53936293674524
H          -2.36864349713203    0.27895497124811    2.33308660807221
