    26
        -50.45825206  Gyration_radius:  2.5860637054 Dipole_moment: 3.179
 S          -2.25198193754661   -0.42719963135094    0.20274502730641
O          -2.70013128378031    0.95407246642166    0.07179178948297
O          -1.32128878288121   -0.79186081426376   -0.85398233823809
O          -1.77257557758811   -0.73209542964024    1.53253791241629
O          -3.52859023460309   -1.34295044933062   -0.03373700524219
H          -4.04934942716053   -1.22473737869477    0.75528968196055
H          -0.38702222088778    0.01898200154482    1.83976429496710
O           2.77540965845352    0.45642362500490   -1.14478445842880
H           3.73083292356464    0.52202094824937   -1.15784456890237
O           0.46017697582461    0.49292436318082    2.03850470380946
H           0.46379791326752    0.63112740990403    2.98713140426913
O           0.23018136118375   -2.88526805554384   -0.29027940094500
H           0.35878746270820   -3.29875239091040   -1.14556293751056
H          -0.40180673930799   -2.15259268513046   -0.43576712727227
O           1.27373894420146    2.24545046265416    0.09977009365909
H           1.93634617775222    1.68052193003887   -0.36875346638499
H           0.09745253048892    2.03803799992185   -0.81252485750406
H           1.02178328421629    1.73194625102768    0.89014043478053
O           2.16792383635779   -1.27886206034139    0.72306414870714
H           1.63235142534432   -0.71684045121506    1.30581678999648
H           1.55125578815040   -1.96623170226653    0.40198445224025
H           2.56499397169548   -0.27188162242071   -0.49757701215649
N          -0.74550033905605    1.70202281351569   -1.41742801966878
H          -1.62311990735482    1.68956737423493   -0.82299959124739
H          -0.63271122415177    0.68844881942816   -1.59546587814827
H          -0.85095457888758    2.23772620597614   -2.27183406194175
