    26
        -50.44312306  Gyration_radius:  2.51350598123 Dipole_moment: 5.525
 S           0.33777943233745    1.17015034620571    0.98620381921555
O           0.48545745005463   -0.24711786498514    1.22264149909484
O           1.29834170952942    2.02986688553214    1.57153139971653
O           0.33515194564249    1.36778314483316   -0.56975907819605
O          -1.09612728284094    1.60365310103922    1.31107399399139
H          -1.67233625508187    0.81520550550095    1.05216783937304
H           1.10925872479664    0.89473898573598   -1.00336990417897
O          -1.42324636493551   -1.51084802283493   -1.74387150209483
H          -2.06943031224824   -1.98228260114193   -2.27232807616092
O           2.15196074832646   -0.00497201172322   -1.78166892792858
H           3.04506475211390    0.11758905875238   -1.45529840913762
O          -2.22329366125947   -0.60287234333727    0.68902319094774
H          -1.98864125433810   -0.89131534474821   -0.21860677222043
H          -1.67021321358450   -1.12463785575466    1.27942089734008
O           1.07457507998334   -2.06792177035906   -0.65734815094340
H           1.83854247960136   -0.89465559388534   -1.43317166734607
H           0.93281938702125   -1.57580415547475    0.17226580399474
H           0.19711518778457   -2.12651301745820   -1.06799087586526
O          -0.34800681937851    0.47274815639886   -3.13858705809688
H           0.59776151196495    0.28130748257895   -3.14957320206616
H          -1.07451509019618   -0.77841630264345   -2.31178587732569
H          -0.45348467728401    1.20714855226085   -2.52341066420509
N           0.09103613715995    0.84080400323788    4.01445433577345
H           0.34070927299122    0.15261141014872    3.31531370003929
H           0.87234473091351    1.48351160173375    4.06929622087711
H          -0.68862359921704    1.37023866028573    3.64337749465489
