    26
        -50.45807537  Gyration_radius:  2.42080895071 Dipole_moment: 7.659
 S           0.65425939376996    0.97837320672555    1.85908513110792
O           1.70900872768504    1.12020701702953    0.86570826841077
O           0.92370413822879    1.52623653347610    3.14253103828054
O          -0.63459240190655    1.68837886654423    1.24828413799268
O           0.21209046704959   -0.44723770614123    1.93016902392769
H           0.62525083874276   -1.63037867297183    0.90422803605652
H          -0.29540576172351    2.22844606061213    0.48351873864516
O           0.74485510652944   -2.35232588242451    0.23373486817268
H           1.05456331190360   -3.11799785941982    0.71853142064772
O          -0.02894048848181    0.46831029441898   -2.37802936763753
H           0.09449786034144    0.50651553636565   -3.32728946536106
O           0.46386431684527    2.72663514511711   -0.83000906937046
H           1.26324376055610    2.37007964808640   -0.40500128239774
H           0.20424299940342    2.06399392646192   -1.49500740115339
O           2.09156947262190   -0.44911133552965   -1.21996778012269
H           0.83403293116112    0.11487775557623   -1.99573475303960
H           2.10944119806451    0.14802315191233   -0.43909883911442
H           1.81501845994697   -1.30559152724857   -0.85859373302260
O          -1.44226557780576   -1.51431425079692   -1.20115088157118
H          -2.01903814900384   -0.90477458295906    0.09486270499138
H          -1.04647298864817   -0.77579329651154   -1.71140523409382
H          -0.68272252133199   -2.00706238905089   -0.84074885620167
N          -2.17850034010777   -0.47467341734040    1.07123824328295
H          -2.88173950520112   -0.97515117215856    1.60374796458972
H          -2.39647535903010    0.51846282156882    0.99477658470328
H          -1.19348989961067   -0.50412788134032    1.55162051227622
