    26
        -50.45061090  Gyration_radius:  2.47891504835 Dipole_moment: 4.880
 S           0.88793521725266    0.75774228784201    2.09801836623817
O           2.05791359406073    1.04142416345276    1.12877790509627
O           0.83301292514132    1.79110409417469    3.06450205439176
O          -0.36065332852949    0.82683666085278    1.15640968286845
O           0.94223275774403   -0.60181945215340    2.56147454943458
H           0.50917493017363   -1.68852676770833    1.44420053952696
H          -0.18350399298637    1.55467081248137    0.48026409135415
O           0.39452466745516   -2.31619714824778    0.68743523022085
H           0.51705375126851   -3.19490480796849    1.05047915014008
O           0.52166583591995    0.34110973624779   -2.32138354582257
H           0.46757681874051    0.33556353938967   -3.27758732672478
O           0.36280474168541    2.45353012087457   -0.66985544619407
H           1.26455540681352    2.61431927189896   -0.37461075102475
H           0.41662695175844    1.77875475174380   -1.38270560183772
O           2.24917736732550   -0.81194512269569   -0.57340983441308
H           1.66483307391178   -1.50968262388091   -0.21446560151468
H           1.76384148159284   -0.41972425950733   -1.32539178601203
H           2.20680949356570    0.25837426178097    0.47546891832563
O          -1.20894219962790   -1.32771352372713   -1.39529304115555
H          -1.94051199856110   -0.83564332937097   -0.95271240819487
H          -0.19876650268621   -0.28772682212074   -1.99468300033308
H          -0.73695739591647   -1.77801637617555   -0.67809924904467
N          -3.00559503460713    0.09285256372540    0.05939830044009
H          -3.42296504009204    0.92303195860368   -0.34164471759365
H          -2.28191162701290    0.39245459940989    0.70595015354357
H          -3.71993187439918   -0.38986856891595    0.58946338828172
