    26
        -50.44561574  Gyration_radius:  2.55934152384 Dipole_moment: 7.363
 S           2.40095362979234    0.61071913479689    0.67305831743975
O           2.75209507367899   -0.30572114676511   -0.50991677453180
O           3.42054104902562    1.57577693009834    0.85314310705961
O           1.06940062119938    1.30178519272330    0.20097801544522
O           2.01947948237909   -0.17561892791050    1.81690062577089
H           0.78187720350940   -1.21123242912433    1.79490460136041
H           1.17765135464424    1.59638643726966   -0.74993503317615
O           0.09728522834455   -1.91372185761258    1.65480414936259
H           0.45804745002679   -2.70446775655272    2.06040106091179
O          -1.03573310213937    0.07085415405432   -2.16199467760524
H          -1.79664613254000   -0.16531083223605   -2.69314484568339
O           0.96240351340523    1.89344817053104   -2.30238757478682
H           0.29713414384312    1.19663956831397   -2.47335154483683
H           0.51810911035515    2.73673041062060   -2.41573357521911
O           0.68431796459329   -1.70364760335967   -0.97353001785496
H           0.05926293346171   -1.12234711816357   -1.44650908817113
H           1.96583615921039   -0.91959140885186   -0.72831855452877
H           0.31944955365900   -1.85430622766554   -0.07769627624241
O          -1.73564881616156    1.31829438932776   -0.00677836773020
H          -2.11369535664245    0.66726436239760    0.63970928241184
H          -0.84766814518882    1.51158774807569    0.32098705129483
H          -1.38261636920965    0.54798542793950   -1.34730755669836
N          -2.50278940838047   -0.54080256708538    1.77798472846966
H          -3.27045895123563   -1.17040956050006    1.58182605330524
H          -2.65162453330174   -0.14904833643390    2.69933784477146
H          -1.64696365637347   -1.09124616384134    1.81256906937041
