    26
        -50.44639639  Gyration_radius:  2.51506642475 Dipole_moment: 3.607
 S          -0.29374887210947    0.29074852888547    2.31339071814363
O          -1.24380400168351   -0.78795727782746    2.32361931397867
O          -0.15870957109860    1.09647083704344    3.46724740360756
O           1.10503203571778   -0.26590601173587    1.94221705028513
O          -0.63940989397618    1.21008051590203    1.09192604829829
H          -1.28032180115556    0.75600458851420    0.47541024441940
H           1.03409153766075   -0.88194022846361    1.15176755972637
O           1.02127258465877   -1.76537299955231   -0.14817556579180
H           1.77480186760455   -2.35783125449521   -0.12759593462021
O          -2.32770062219176    0.03769120140867   -0.50024076542152
H          -3.20646508259569    0.19844132827896   -0.15173831321179
O          -0.85263112367576    0.73329206026220   -2.74777737289018
H          -1.18981306600483    0.18112711079525   -3.45502005589104
H          -1.42706263913501    0.58706929171808   -1.97959836628929
O          -1.64120998322418   -2.34144810207528    0.20031364275703
H          -1.60957714992754   -2.03284870768148    1.12613163619433
H          -2.12677152718449   -0.93598325617504   -0.32236774844014
H          -0.71080480918601   -2.38104488182857   -0.07368679580228
O           1.61462086616396    0.08534162377652   -1.77864625285495
H           1.24751775367131   -1.05212595211446   -0.85216474883728
H           0.79402332243384    0.38599517282427   -2.21391598438130
H           1.87158695127185    0.81644153873064   -1.16397447783162
N           2.07421777201813    1.95286395020302    0.12620872578236
H           1.11739215637737    2.08952670759103    0.43603052268239
H           2.48535714272533    2.86360905375874   -0.03582376335903
H           2.56811616286672    1.51775518225055    0.89646326968568
