    26
        -50.46439123  Gyration_radius:  2.39572573143 Dipole_moment: 3.897
 S          -0.39714179005435    0.27332012956616    1.73986551163372
O           0.39006056714531    1.19175383362695    0.91860895912405
O          -1.40200206413264    0.96649060305337    2.50997655310910
O          -1.02268171481840   -0.76327066235695    0.88959270187922
O           0.58579927382036   -0.46750663819846    2.68724838019212
H           1.20363760664817   -0.95880524245387    2.08592369476574
H          -2.31912810791156    0.00265756305178    0.36745757997745
O           2.26455499320598   -1.60589115243816    0.99084119331517
H           3.09824698271051   -1.74232027006744    1.44458958813509
O           0.44686437563897   -0.06073361617744   -2.51908148109762
H           0.46687748887844   -0.34207043208473   -3.43429302757358
O          -0.94221523717589    1.94780619849846   -1.22206486087859
H          -0.56074222162148    1.29901439712227   -1.84187332569278
H          -0.35637108385352    1.87679004467120   -0.43505376506294
O           2.43022727571529    0.46086189640958   -0.58295168549765
H           1.78602341585762    0.91077113208671    0.00206395496262
H           2.41414245860876   -0.84551959113373    0.35423390908068
H           1.94650686704416    0.33969420813849   -1.41460686703808
O           0.23349053932810   -2.16508826698645   -0.95215591301883
H          -0.31532722551154   -1.73528728861198   -0.26153498729018
H           0.32915392712609   -0.88477301802779   -1.97455344733260
H           1.05952300263872   -2.36453518266315   -0.49735414949984
N          -2.79360184639083    0.94949278970842    0.28386203478770
H          -3.78845225084588    0.92178340874517    0.08798514313160
H          -2.19753628541416    1.46760167996675   -0.45487749186932
H          -2.55990895663293    1.32776346655055    1.22815179774956
