    26
        -50.46439135  Gyration_radius:  2.3957372682 Dipole_moment: 3.894
 S           0.35288433567223   -0.62570773123564    1.65593582870605
O           0.37209207220822    0.78859867704006    1.28574782379135
O          -0.36426719923699   -0.84976517270185    2.88840697025506
O          -0.23481085231367   -1.43137819987874    0.56323365867015
O           1.82734982082789   -1.09124978450095    1.80336352256408
H           2.23183634637472   -0.95658306784924    0.90725626300907
H          -1.79371424836286   -1.25707960166283    0.85001594596705
O           2.83839725657109   -0.54663714423203   -0.57830441274034
H           3.78377049235546   -0.42134417374995   -0.47799494679432
O          -0.72177259312687    1.10932970171378   -2.19079062868833
H          -1.02439107204411    1.23802700322334   -3.09023527818320
O          -1.93073777429456    1.54250166912381    0.25787933732666
H          -1.06627359836678    1.47541812075281    0.72240918746514
H          -1.68622514522104    1.44518442583432   -0.68091800877292
O           1.64953887540678    1.75771594089106   -0.80728050103948
H           1.22830970832284    1.58405228391091    0.05995639599045
H           2.45021097024493    0.36551270434515   -0.73024572154249
H           0.91035744103457    1.73868209187000   -1.43461223571312
O           0.43602810843834   -1.24489825370709   -1.97629561839326
H           0.14823321591300   -1.42801795122226   -1.05617768738488
H          -0.32749704149204    0.19683672639660   -2.15503062473921
H           1.39470290215066   -1.17378754934733   -1.90680645294002
N          -2.51873210145353   -0.70505786303425    1.39584666628818
H          -2.50217041189877    0.26908876540183    0.92659442443402
H          -2.01738837769876   -0.64534966657418    2.30947464977940
H          -3.43573111003217   -1.13409197079768    1.45857145271165
