    26
        -50.44327699  Gyration_radius:  2.6104190764 Dipole_moment: 5.297
 S           1.08271278540272   -2.45605809972935    1.00513990660887
O           2.10421026600144   -1.65453854286320    0.37811837245623
O           1.49426845546579   -3.40221467419194    1.97106586210033
O           0.03968196798836   -1.45470966241659    1.61955325180926
O           0.23846202414648   -3.16263746552107   -0.07829340426002
H          -0.13620618177539   -2.46935081108568   -0.69338355674290
H           0.44766090421339   -0.53487217609296    1.60182478157316
O           1.17832035121508    0.84377890926035    1.39693319091936
H           2.08461442322118    0.66406118233977    1.65975360483341
O          -0.83933007511848   -1.31837936592749   -1.54520478060176
H          -1.39736326125689   -1.69499506493941   -2.22776347786444
O           0.35384248346146    2.88996464560506   -1.59686596900975
H           0.84074064056447    2.05396560156369   -1.55407452306055
H           0.60049512049923    3.30833310021938   -2.42232148841593
O           1.34819680524360    0.30332680692680   -1.24050016134593
H           1.18739573997639    0.86131134336529    0.41153056418562
H           1.86345295914308   -0.42145797018681   -0.83534185968306
H           0.53462841374692   -0.13127047491595   -1.54409630367229
O          -2.28561205194562   -0.40500526513144    0.34431492280461
H          -2.05012416192392    0.56779548862643    0.43099804758293
H          -1.46865472273155   -0.93219322591192   -0.84076448458646
H          -1.85637062173059   -0.84317065884345    1.08776758198686
N          -1.46284461787520    2.10011490519485    0.62701769929363
H          -1.02489545625717    2.45591020824911   -0.21856888250312
H          -0.73566974547167    2.04611702807246    1.33147129804887
H          -2.14161243424507    2.78617422830957    0.93168980754720
