    26
        -50.44327697  Gyration_radius:  2.61081547789 Dipole_moment: 5.300
 S           1.27759210808332    0.79143118334033    2.44209858841610
O           1.21277561786397    1.88818763607262    1.50833896489836
O           1.38710156629258    1.10685019387111    3.81543184640307
O           0.01125279685786   -0.09975654214740    2.17724971763351
O           2.42312910102158   -0.16472007219125    2.04221860682449
H           2.27349262356740   -0.46591649446338    1.10090297389650
H          -0.61262042298285    0.41978638878659    1.58242720753404
O           1.90403380488189   -1.04129073507435   -0.34068002936250
H           2.57131825150667   -1.66136806342996   -0.63958449433145
O          -1.41674003515952    1.31151468318746    0.56555039231404
H          -1.35605365300479    2.19476528042860    0.93831373564198
O          -1.04259066319312    0.67158914833090   -3.08100281709500
H          -0.39752599198824    1.04998749520129   -2.46577750516197
H          -0.77516876328882    0.94389825720602   -3.95954297689972
O          -0.18756987120021   -2.30669307607269    0.38066180241246
H          -0.30686029874085   -1.91592187232451    1.25359341917026
H          -0.93881107929600   -1.94805787274866   -0.18167070817960
H           1.08035188261142   -1.59667291815961   -0.10732043731598
O           0.74784022907401    1.34106979713254   -1.04310328049407
H          -0.77622052781642    1.29613833165701   -0.18349246464882
H           1.07515594961264    1.77212388057294   -0.22946576450573
H           1.17922703139295    0.47109576460519   -1.03494745897016
N          -2.13705253286929   -1.16742759726304   -1.01022566230786
H          -1.79082081939169   -0.71198583148971   -1.85055396275002
H          -2.48162976595974   -0.43324890280866   -0.40175911560760
H          -2.92360652787350   -1.74537807222933   -1.27766058751886
