    26
        -50.44327688  Gyration_radius:  2.61044752248 Dipole_moment: 5.296
 S           1.98093572189746   -0.19675766335813    2.06189046495835
O           2.46452469067392    0.57934814887882    0.94702966028821
O           2.57823830239095    0.02732933354441    3.32306575329887
O           0.42929969947548    0.03846601059445    2.13410780115657
O           2.05430230381515   -1.70118510020398    1.71892937368324
H           1.53620718786621   -1.86214163847812    0.87940286622469
H           0.20624001751672    0.81382958541386    1.53256802721667
O           0.56573541272662   -2.09125039855366   -0.36633186518625
H           0.55236622976712   -3.01555594642061   -0.62047480901747
O           0.01308411375341    1.95800358343924    0.46934203189650
H           0.73494138860328    2.56469627482128    0.65266149338366
O          -0.97858314675804    1.04175123513290   -2.99711821855816
H          -0.80446445718692    1.01125179304643   -3.93848307076529
H          -0.13018205169300    0.89403782119224   -2.55411758932794
O           1.19485227620360    0.37920687792821   -1.37100914230117
H           1.89881849741661    0.50127121035563   -0.70437447306901
H           0.91499800145922   -0.54239206087019   -1.24726031619354
H           0.28523178082161    1.45915491763649   -0.33599769337771
O          -1.59791013762380   -1.49767211433368    0.84327133788461
H          -1.22267367076763   -1.08904600793488    1.63140689427130
H          -2.01293947038296   -0.74665367956451    0.32072092418634
H          -0.33606335456822   -1.90105425412328    0.07166265507929
N          -2.51834582091544    0.60426825904686   -0.48598821354365
H          -2.15804558267298    0.64201574225226   -1.43581252373341
H          -2.12895342936422    1.40106364269969    0.00541024333572
H          -3.52161449248692    0.72801441793285   -0.53450161181010
