    26
        -50.46439131  Gyration_radius:  2.39574598694 Dipole_moment: 3.895
 S           0.21877619976365   -0.48377643769074    1.72534379901929
O           0.87634685496545    0.66229036951622    1.09943229546647
O          -0.34626379460129   -0.14475538144710    3.00956793580669
O          -0.82600645359565   -1.02520188791127    0.82871267175206
O           1.28341490635937   -1.60289667941057    1.88843771194867
H           1.57916659420343   -1.81489064352185    0.96522649198642
H          -2.04774999504346   -0.05228758188363    1.14959731569955
O           2.10540905154798   -1.97485017352995   -0.59701382848189
H           2.99552138544571   -2.33011881273113   -0.56524078330173
O          -0.37173287326281    1.00843966019036   -2.32281580252877
H          -0.68914205763969    1.14721857461285   -3.21560428302778
O          -0.87891282728584    2.32347591688410    0.05617830390246
H          -0.83972884848913    1.98808200890018   -0.85845474397096
H          -0.10423636716829    1.89501727091868    0.48500459862425
O           2.17342782197318    0.55799118301976   -1.19363516922320
H           2.19541984486109   -1.02217797168866   -0.89722288783248
H           1.44311591695559    0.82774818110420   -1.77173174729235
H           1.84036240022365    0.74085414605524   -0.29066843622029
O          -0.49332952796243   -1.55333093682121   -1.72965728161846
H          -0.70894716243320   -1.43817414402917   -0.77932012043004
H          -0.47215956090488    0.03643412808541   -2.13708693861468
H           0.37778569102661   -1.96560772181011   -1.71882143813917
N          -2.33205102396464    0.85852169043160    1.61644970393963
H          -1.90449686586882    1.61671565325872    0.97472103498355
H          -1.74964388953224    0.78274957061869    2.47936342282717
H          -3.32434540957446    0.96252999883501    1.79923816469748
