    26
        -50.44327703  Gyration_radius:  2.61055048251 Dipole_moment: 5.299
 S           1.93185046488824    1.32760910136739    1.65031717837645
O           1.83301512009121    1.95516439595937    0.35589615383340
O           2.41303195819402    2.11215544302730    2.72296704354395
O           0.50808807543863    0.75135163421879    1.98030398450310
O           2.77432259919852    0.03769276135067    1.53959701054487
H           2.35874275768709   -0.55638087882708    0.85138898215515
H          -0.14279133665450    1.13913056662060    1.31786046852687
O           1.56855785195965   -1.53215199042009   -0.13287582187868
H           2.03335930760129   -2.36499147958823   -0.23007689389872
O          -1.00376388959640    1.73860766875571    0.14493950739377
H          -0.70990242436017    2.65140896180805    0.08848463678776
O          -1.61492062914397   -0.33639797393334   -2.88193019040598
H          -1.52234890094371   -0.50128973694176   -3.82087551100136
H          -0.78871463548962    0.07644690012972   -2.59078176822335
O           0.69285480156911    0.59919696835381   -1.61525829106249
H          -0.57038600250028    1.27434019370309   -0.60884563142136
H           1.27049538930396    1.21456912659304   -1.12267220869607
H           0.96233473790192   -0.27769470371911   -1.29674375483373
O          -0.47338720922181   -1.85336764970136    1.35825144877635
H           0.74284099466428   -1.72897015480362    0.43360593392696
H          -0.31584795480967   -1.13849266314143    1.98525033690124
H          -1.26581660420733   -1.56474387116654    0.81233753266178
N          -2.47854142848513   -0.89228664451616   -0.08685703017513
H          -2.26981974175529   -0.89991676259677   -1.08176585181921
H          -2.54218020734462    0.08095570806664    0.19018326333244
H          -3.39107309392331   -1.31194493055814    0.03729946211831
