    26
        -50.46439133  Gyration_radius:  2.395740466 Dipole_moment: 3.895
 S          -0.12212736097318    1.34390369093981    1.19896358386128
O          -0.61496134470510   -0.01352616438356    1.42730838923386
O           0.62920524174065    1.84056029054253    2.32693130415809
O           0.70142190670863    1.38803708248661   -0.02923231949532
O          -1.35484681964452    2.25163203001503    0.93643516015461
H          -1.78102396142280    1.87938552267604    0.12123211835555
H           2.11149270441095    0.88745217220424    0.52198240051394
O          -2.49010114335460    1.08353433131877   -1.14636496085310
H          -3.42269642162161    1.30661051326873   -1.13983505163730
O           0.30673081024483   -2.09546967608951   -1.43713291667036
H           0.54833406903031   -2.67929752922205   -2.15679778731391
O           1.30093469309799   -1.79307266964407    1.12551164981517
H           0.50926792842933   -1.27586537987030    1.39640292236458
H           1.10294128640768   -2.03410776906219    0.20177571414979
O           0.00689136337552    0.35526045449735   -2.34995478375959
H           0.24187962696784   -1.18233245516659   -1.82613901437495
H          -0.92006578568101    0.61533155065510   -2.39505493213254
H           0.33951297773060    0.81449614276116   -1.54910673349854
O          -2.14364529022416   -1.34014496206616   -0.26235304640220
H          -1.44094244498164   -1.81490305124015   -0.73257334502014
H          -1.68859431600924   -0.95170197121450    0.51336450993445
H          -2.43061064514254    0.12309165952017   -0.86380920844587
N           2.60947571920020    0.42820447324370    1.34018308608062
H           2.11753005603111    0.91766555229965    2.11995753182833
H           3.61728722804264    0.54202686667076    1.35549392955921
H           2.26670992235355   -0.59677071513703    1.30281179959203
