    26
        -50.46439113  Gyration_radius:  2.39568683775 Dipole_moment: 3.897
 S           1.66031987681434   -0.37165638951593    0.60416818808306
O           1.37128473516874    0.23867482230867   -0.69262281559372
O           2.72366510379668    0.31537293998320    1.29731459403543
O           0.43780954345543   -0.40382089815327    1.43687515035394
O           2.05785667191660   -1.85102360028043    0.34715994601873
H           1.26100722318108   -2.26294009685509   -0.07717111386214
H           0.43623991590037    1.06928867577573    2.04374248161239
O          -0.06297599348369   -2.80134641106034   -0.91412798884061
H           0.21858010927937   -3.54574263885480   -1.44901263966065
O          -2.22919317327861    0.84657907090601   -0.92710131285115
H          -3.16184770807496    1.04372660913791   -1.01894107597745
O          -0.03268925248729    2.44874262532212   -0.42260602128644
H           0.58219728506988    1.73393762982627   -0.70290242169068
H          -0.91238455059904    2.05687198281751   -0.57484712123297
O          -0.39499786933655   -0.69822273839004   -2.41124718033332
H          -1.14995897113950   -0.15605050259023   -2.13475488191187
H           0.36835369927623   -0.29462582136317   -1.94848938364303
H          -0.23923641747582   -2.04883801491536   -1.55327911739267
O          -1.91919833762215   -1.25513377766748    0.62724220182290
H          -2.16586213568173    0.07222528114676   -0.30600776714266
H          -1.66751401134152   -2.04092089112319    0.12910159687387
H          -1.07965204202056   -0.96360460782521    1.04316544467653
N           0.86177399321477    2.04004070318116    1.97012002856556
H           0.45298321675135    2.42671109316390    1.04658978159876
H           1.85548967613213    1.76568853395564    1.80772244740806
H           0.72794940258471    2.63606639106618    2.77990897036553
