    26
        -50.44327699  Gyration_radius:  2.61060339801 Dipole_moment: 5.298
 S          -1.53615641356430   -2.38265017329892   -0.42512309219589
O          -2.04109835744883   -1.62954491630213    0.69604404306890
O          -2.43026746168774   -3.25929880212453   -1.08060574315179
O          -0.94236315219986   -1.33803826725114   -1.43731339231925
O          -0.27171087182733   -3.16182218543838   -0.00089682542918
H           0.39603119755327   -2.51260094872679    0.36261385971297
H          -1.24655745858301   -0.42276292466851   -1.14985442729683
O          -1.70830975888458    0.93634578072248   -0.50497194618670
H          -2.62182132755980    0.77324004239442   -0.25669665199171
O           1.48319855496063   -1.42271722260854    0.77995542417616
H           2.30449004361850   -1.84510021378020    1.03723177646202
O           0.64531166161110    2.77047950138902    1.71468115146570
H           0.88812517204128    3.12862712890775    2.56919519237136
H           0.18154047604439    1.93764916301817    1.88536208925198
O           1.73987640021792   -0.37312635993172   -1.52826174210790
H           1.65689943591398   -0.98561018844540   -0.12580591575307
H           0.96680518254219   -0.75874278604311   -1.95563455369806
H           1.52890157287373    0.60275865265072   -1.41675968569460
O          -0.47442552244840    0.21191563987376    1.78189214155546
H           0.36053726369199   -0.24111540848904    1.58051767325595
H          -1.19318238277091    0.88463467097548    0.33371317551949
H          -1.15119885802899   -0.48390590943418    1.66889704254524
N           0.98224565039001    2.14383563433884   -1.17698712779734
H           1.07062658238335    2.43803226082686   -0.20793233499610
H          -0.00885637183624    2.13845899746878   -1.39072700188397
H           1.42135871304634    2.85105885400264   -1.75253312886497
