    26
        -50.45002655  Gyration_radius:  2.51429995866 Dipole_moment: 6.066
 S           0.85918187006513    1.23940095187386   -2.08564895820622
O           0.78314852009619   -0.28807051395938   -1.80375239723797
O           1.04073243665393    1.49637565857645   -3.46582196593690
O          -0.27008978010189    1.86995556127836   -1.44306437424590
O           2.14337073120233    1.62684779747704   -1.31198011420498
H           1.92316501539722    1.45566745160574   -0.35737262605524
H          -1.68189693089922    1.58059109307101   -0.71829240976074
O          -1.02418250991336   -2.00140321719389    1.39327254287615
H          -1.72610761886187   -2.44853523307840    1.86755312820472
O          -2.50555862364284    1.25225180344671   -0.28511210754119
H          -3.21166329528084    1.82881295226173   -0.57973861276683
O           1.58518792902567    0.95956722048747    1.13707044524858
H           1.69930847459618   -0.04621241318994    1.00143023396806
H           2.26781755664102    1.23880501583194    1.75006012095926
O          -1.05187827800085    0.56497975041029    1.97008216803485
H          -0.17030737570559    0.87313391680275    1.70451082461580
H          -1.66432164710918    0.90711154118420    1.29910472039244
H          -1.03058117533305   -1.05740493439560    1.70974888633487
O          -1.50184798041149   -1.14570122458518   -1.13392102607185
H          -0.16803672749551   -0.61878729524388   -1.59552614566220
H          -1.31801615187556   -1.59490372433011   -0.28120316372768
H          -2.02897944683625   -0.35944894878427   -0.90114353918037
N           1.79637197879112   -1.58817549296285    0.63885021645898
H           2.57485449367198   -2.18062317563612    0.89552860988833
H           1.74179712976431   -1.54308443441318   -0.37370521223647
H           0.93853141555352   -2.02115009653280    0.96907075586714
