    26
        -50.47356257  Gyration_radius:  2.43535095486 Dipole_moment: 2.302
 S           2.05714034561134   -0.41343785685139   -0.60081369176582
O           1.89093217259454   -1.62851479719139   -1.37286062984674
O           1.20852387838532    0.66501455671237   -1.10138374935201
O           1.91861778522960   -0.59846636198269    0.82438035792354
O           3.55313744764964    0.05322641709343   -0.84644965564230
H           3.66034642224769   -0.16113039970913   -1.76686842639406
H           1.01574976150160    0.19088533421703    1.85510112208965
O           0.40642999219986    0.66196904418304    2.48342716200498
H           0.83067316750433    0.61808324995459    3.34129226867575
O          -0.43246911163197   -2.28377391304371   -0.45182836825625
H          -0.43406666380430   -3.23365955876324   -0.31948158623753
O          -1.03726865063762   -0.20266776899481   -2.21806778221475
H          -0.14946053303587    0.14645511936213   -1.98694595130180
H          -1.03304616231926   -1.10572394746957   -1.86961050442336
O          -0.02230036305727    2.44933974900639    0.43957022316042
H           0.54055680903939    1.93080228375957   -0.17454087449805
H           0.48081355513949   -2.05695337798198   -0.75907323785762
H           0.14518583064945    2.05490504099471    1.31170779054268
O          -1.68841443027463   -0.80095429259908    1.50008808571789
H          -2.16383480702916    0.35527707993778    0.50840069171149
H          -1.22623052304968   -1.40414294005162    0.88836232751315
H          -0.98602649756735   -0.34796225463272    2.00283448538684
N          -2.17776303687433    1.11109256960588   -0.23947262679532
H          -1.40904082619601    1.80330231343771    0.02178894973931
H          -3.08358057927598    1.55458729898169   -0.32929061980105
H          -1.86460498291036    0.64244739200842   -1.14026574993520
