    26
        -50.45002654  Gyration_radius:  2.51431641866 Dipole_moment: 6.066
 S           1.96980719117254   -1.35578532903749   -0.95198774209160
O           1.96408540012610   -0.26225058247872    0.15371164999303
O           3.16956590160639   -2.10651486929681   -0.92267217776504
O           0.73129183180846   -2.09282000676180   -0.85907132812503
O           1.93041543331399   -0.48971596651797   -2.23503302349395
H           1.04984826024266   -0.02877372171229   -2.20041698814000
H          -0.56201484712968   -2.34995288693143    0.07018742315702
O          -1.34532760695934    1.41414817839435    1.78493517562650
H          -2.02981387717961    1.54097350781330    2.44293247671545
O          -1.29702587641763   -2.39074534411258    0.72742746005087
H          -1.52337608171038   -3.31708260801470    0.81947760355681
O          -0.28494070186881    0.84560507032693   -1.98241278865328
H           0.06507317455768    1.49959022461572   -1.28040255178363
H          -0.48674969118673    1.35855644199837   -2.76718525592684
O          -2.29239480269763    0.01074861733221   -0.22835091443945
H          -1.66310512635559    0.18128793831427   -0.94777390359588
H          -2.11485619810652   -0.89640390968433    0.06813978830850
H          -1.77858191036476    0.95199298761489    1.01679802926907
O           0.35870885589681   -0.67493988835942    2.06627104984545
H          -0.17610298963796    0.14761457161740    2.07532577164147
H          -0.25012375429962   -1.37333612702890    1.76325997432463
H           1.34998601578417   -0.48635136471959    0.94753158099074
N           0.68965268117234    2.38072242356441   -0.11764359055873
H           0.04093824293575    2.33741906720580    0.66318834469763
H           0.98847951200278    3.33988137365949   -0.23439276718708
H           1.49656097328762    1.81613221220268    0.12815668359190
