    26
        -50.45002653  Gyration_radius:  2.51433294241 Dipole_moment: 6.066
 S          -1.20675429021854    0.12643418404191    2.26994516791386
O          -1.80087128920591    0.11461740020083    0.83282170982737
O          -2.19901827381491   -0.16677776740375    3.23602250136475
O          -0.02318297285596   -0.70117846031631    2.27186345309961
O          -0.77111389331771    1.60617148857472    2.40564624017768
H          -0.05312374798886    1.72025551979249    1.72700747625801
H           0.80486914290172   -1.78774584820442    1.41391559502698
O           1.20844759484827   -2.42202165078644    0.77463014807227
H           1.50368357519674   -3.17255512603156    1.29167591475828
O           0.29657462829012   -0.53547485958548   -2.57320810583894
H           0.63092660094723   -1.04410361342582   -3.31284844797778
O           0.94376934162827    1.89994946200149    0.47496533314713
H           1.37307094712971    2.75704845850137    0.50316292603649
H           0.25246239934883    1.93710952472153   -0.27588101116680
O           2.16262047690756   -0.30399638062906   -0.73362521855071
H           1.06336320828786   -0.41127333935408   -1.95035785683727
H           1.86189778127887    0.44143515097215   -0.18905270509731
H           2.00773105709789   -1.10004374755634   -0.20008017315121
O          -1.06787917549276   -1.82518130095944   -0.61816302274748
H          -0.70224763550947   -1.37254859879598   -1.40818413729008
H          -0.29812312567287   -2.22241551458352   -0.17101339064431
H          -1.53653607710437   -0.71631143298829    0.28769193688439
N          -0.90505529822826    1.86819146853285   -1.35928943885932
H          -1.65569245477172    1.47298693982091   -0.80193914460855
H          -0.62927851429551    1.16415609887021   -2.03802638919004
H          -1.26054002540058    2.67327196458378   -1.85767936061277
