    26
        -50.45002654  Gyration_radius:  2.51464715459 Dipole_moment: 6.069
 S          -0.31646435067218    1.98295402350175   -1.61213673565344
O           0.22288577421964    1.96916214054971   -0.15359855292664
O          -0.67562209042380    3.29230054624490   -2.01261242520023
O           0.93354422713150    1.52315496334088   -2.40199467683828
O          -1.33040228240305    0.96060374055932   -1.72415838997205
H          -2.25248864961719   -0.05546384779936   -0.87579747282097
H           1.09839506718750    0.59210353255442   -2.09377443645214
O           0.20844901356496   -1.23424986705556    2.33024038524866
H          -0.11579526349181   -1.78973640221873    3.04010346092488
O          -2.73370216492048   -0.62927775414352   -0.23312835001830
H          -3.64723743771719   -0.64685959259469   -0.52118412329672
O           1.43974984183442   -0.82274473352205   -1.40435995716152
H           1.83814246393195   -0.48247450922342   -0.52770034481859
H           2.14401389609376   -1.26997803192996   -1.87726718062147
O          -0.50109735750714   -2.24906661802711    0.00963579490492
H          -0.01585187874352   -1.70535858115100    1.48214974695055
H          -1.37141988564898   -1.83947010770204   -0.12177498390408
H           0.09284669532871   -1.81640551255788   -0.62493257742615
O          -1.30093365133839    0.87569172088894    1.54575556885087
H          -0.44286834499806    1.57602911721256    0.52446173218404
H          -1.96121451630471    0.37299086310308    1.03456192878543
H          -0.71687980695416    0.19849088490052    1.94961134468599
N           2.33134404672854    0.16371452572362    0.83525620005500
H           3.30296399309161    0.23697258350056    1.10631192039106
H           1.82238947188931   -0.30198198473715    1.58119996844162
H           1.94725317973367    1.09889892057476    0.74513218568412
