    26
        -50.47356222  Gyration_radius:  2.43595460265 Dipole_moment: 2.305
 S           2.01100256702036   -0.44586340865274    0.72702402962694
O           2.33378046938267    0.78196944440732    1.42589756233248
O           0.76528286610509   -1.03304857372906    1.21424855667963
O           2.03049853479143   -0.32626288963430   -0.71163886316120
O           3.15910021783120   -1.47287919768183    1.10479542916989
H           3.29850736237024   -1.25909394911627    2.02098205807018
H           0.92440189865951   -0.72864536072045   -1.76796161488042
O           0.54897955115393    2.28268942142156    0.31430647875390
H           0.95283643027723    3.13552384387412    0.14287147980542
O           0.20173232803490   -0.94178357822221   -2.41619839690779
H           0.64269318529380   -1.14050439779701   -3.24317175945582
O          -0.95212395828934    0.77278281834224    2.12654775260823
H          -0.28500056105622    0.06881615678632    1.97518073049614
H          -0.55179988311463    1.56396327657046    1.73824591313361
O          -1.12600354232884    1.32670004967585   -1.65172454939311
H          -0.65713746660766    0.58765404500130   -2.08219219101649
H          -2.08724666272881    0.54707236907312   -0.64418582756155
H          -0.48114711663797    1.72419210563385   -1.03710633546323
O          -1.03205650832711   -2.23998373455960   -0.33089664413883
H          -0.67438802277137   -2.01292407130682   -1.20544053958517
H          -0.33154849281514   -1.96369532175683    0.29814813165617
H           1.26671917785258    1.71692154116160    0.69490507476109
N          -2.45085643995940   -0.07922880749359    0.13441048036764
H          -2.00947784477985    0.27773531900648    1.03275974699337
H          -2.03455663174917   -1.04575932268691   -0.04096503645147
H          -3.46219144757129   -0.09634781762825    0.18115835352683
