    26
        -50.47330238  Gyration_radius:  2.42964137917 Dipole_moment: 2.017
 S          -0.99959399880468    1.43050369867898    1.34160442909691
O          -1.81676920470514    0.67257872041047    2.24566251836496
O           0.42780452193016    1.17867516868981    1.48113156952967
O          -1.41157168653994    1.29501697299224   -0.05695299211080
O          -1.23081698560547    2.96140652000082    1.70373059174324
H          -1.64632519200200    2.89275937282829    2.55703452190444
H          -0.54370737784340    1.24070124939813   -1.40323573688646
O          -0.00295842756116    1.12346614598141   -2.22537674664687
H          -0.37851878037256    1.71755347770870   -2.87639632065895
O          -1.84559059678847   -1.28632342074729    0.23322015719736
H          -2.56670073319787   -1.38718789236505    0.85881446188304
O           0.42323528432384   -1.46256260326718    1.79234306456811
H           0.46532689616215   -0.49457377331643    1.92249086678816
H          -0.45549440518508   -1.60929078702529    1.39882513140372
O          -0.20600691757692   -1.61606545413302   -2.01853672933265
H          -0.91825512973522   -1.68896896025151   -1.36579993915989
H          -0.18145035339491   -0.67522180620403   -2.27363210151641
H           1.14029252296890   -1.71130903216704   -1.12161201758994
O           2.17183572880206    1.07162202683469   -0.52881447815384
H           1.63006839997206    1.24824553304616    0.27012086523450
H          -1.75327134291636   -0.31584717699412    0.11903370573134
H           1.57822326741780    1.25217678593412   -1.27612211491498
N           1.88137476459817   -1.53525257093180   -0.38743527975626
H           1.39948603444528   -1.62802513796104    0.55991684232901
H           2.16884840416581   -0.51074653881410   -0.47114858658524
H           2.67053532734670   -2.16333052843280   -0.47886567262108
