    26
        -50.47356259  Gyration_radius:  2.43516460272 Dipole_moment: 2.301
 S           0.67510495413205    2.03908567204315    0.38428495479632
O           1.88694674928031    2.09574087258061   -0.40824522413649
O          -0.47888337564724    1.64597333565316   -0.42050672493908
O           0.79476149860084    1.24912086589466    1.58681533895708
O           0.39648057007379    3.52811473233079    0.85496255451365
H           0.65026844244884    4.01376735763767    0.07766072995825
H          -0.13066411928235    0.08196132230112    2.11820139755899
O          -0.69175331694753   -0.68301008416988    2.41469391403659
H          -0.62608979483275   -0.70037145596835    3.37031731821194
O           2.22957253736703   -0.45363879155592   -0.65346364878373
H           3.16737966037362   -0.63002458646623   -0.55740235808181
O           0.15192991048653    0.06032636100861   -2.45267157264628
H           1.03711761620221   -0.20241759663182   -2.16232143104502
H          -0.09660150405642    0.78297718845031   -1.83655398922439
O           0.54436109248733   -2.26682548747012    0.55452535754899
H           0.16129197077617   -1.81881477368130    1.33157146788800
H          -0.62639898856212   -2.09922235103756   -0.51694369775128
H           1.21784886607069   -1.65444293029764    0.20373412484554
O          -2.44711299442891    0.07860087371162    0.44119100552242
H           2.12332075833550    0.51987372698378   -0.50915164883654
H          -2.06509714138437   -0.21523025046303    1.28499020225117
H          -1.84502171974324    0.79055111077072    0.13556687756233
N          -1.35301243985485   -1.68201388325825   -1.17164980018457
H          -1.95710545996871   -1.03664281552369   -0.57424612778320
H          -1.89794470830215   -2.38827239582557   -1.65073159220181
H          -0.82069906366689   -1.05516603694456   -1.84462740797496
