    26
        -50.47356255  Gyration_radius:  2.43537539577 Dipole_moment: 2.301
 S          -1.77859818619024    0.74418541714836    1.02343321169945
O          -1.52576332549175    0.31535877012725    2.38446442031465
O          -0.67931571731064    1.55007324884133    0.49804352473946
O          -2.14523340879965   -0.32696646864569    0.12752928224345
O          -3.03440241855283    1.71006170971179    1.10108271938492
H          -2.85742716643397    2.17214564690766    1.91335562274996
H          -1.53869194594323   -0.70591953806267   -1.28269668310236
O           0.25810919713821   -1.47119241827619    1.83644785451756
H           0.09395206060681   -2.22720448551787    2.40332096518324
O          -1.11537738556914   -0.96266095810889   -2.14467959409246
H          -1.80192012698529   -1.39497081935916   -2.65423020459179
O           1.67685461608175    0.91924944357199    1.54332132072652
H           0.81563264872235    1.30556268135383    1.27377419615032
H           1.44064525667347    0.06166097048552    1.92513398255929
O           0.19299311458433    1.45018388455118   -2.01261669260349
H          -0.46515985346937   -0.82488093561064    2.03460503387446
H          -0.30274591798482    0.67541241286507   -2.32633639815936
H          -0.19739559092594    1.65011784682413   -1.13493457833055
O           0.97871018408567   -2.05257024684187   -0.75744709050340
H           1.90106188972755   -0.76220353757302   -0.93435033861619
H           0.67074451712779   -1.94659663187950    0.16212024595281
H           0.21458393966622   -1.82299034547524   -1.31833310005838
N           2.25900663625204    0.23906030090364   -0.93456059948676
H           3.19302364706164    0.31955649987218   -1.31715485493136
H           2.20311788049568    0.57423066960378    0.07228512479228
H           1.54359546545963    0.81129689258992   -1.48157735039374
