    26
        -50.45002638  Gyration_radius:  2.51497644865 Dipole_moment: 6.075
 S          -0.53968879909892   -1.43951096152189    2.06746469145359
O          -0.66964305001332    0.09740087997825    1.86891344829016
O          -0.58674264872266   -1.78388372171969    3.43971965191465
O          -1.82151997525546   -1.94579866781496    1.36149921045827
O           0.60684572978247   -1.89274985620924    1.31527327230284
H           1.90848170176454   -1.39509153865647    0.50267220892799
H          -1.69838772853679   -1.69899673431017    0.40602908888292
O           2.64888994029394   -0.94711241236258    0.02834759746893
H           3.43977856667546   -1.44817268280874    0.23150997838431
O           0.66678866956653    2.18071153643315   -1.34135911940989
H           1.27357465238101    2.73407797949582   -1.83451944314129
O          -1.54159625444484   -1.08890410553594   -1.07636224531405
H          -2.23199084028397   -1.41933190193145   -1.65409925077775
H          -1.76459217860079   -0.11315802736138   -0.87275690016547
O           1.43691052302771    1.26366440463403    1.08965979285377
H           2.03470108053999    0.56151819478450    0.77408094079238
H           1.13496805720446    1.72877818762610    0.28007218364510
H           0.21616497397085    0.55316209029640    1.61330610604192
O           0.95429441317430   -0.32956106704218   -2.07228912937797
H           0.76047685113495    1.26212032400921   -1.71405573877674
H           1.65283766241186   -0.62727661063344   -1.46736583800522
H           0.13860444037500   -0.75663127384605   -1.76414466582386
N          -2.01683747229930    1.38451707056881   -0.41351047926664
H          -1.24593049858480    1.93679862985378   -0.77823380280440
H          -1.87779645522491    1.29568163610210    0.58800898464993
H          -2.87859136123875    1.88774863797804   -0.57786053317190
