    26
        -50.45712019  Gyration_radius:  2.43837896733 Dipole_moment: 7.266
 S          -1.49620454719297    0.64807004039577    1.74186176931083
O          -1.04063701327866    1.65678892074412    0.80150605766777
O          -2.71225396491067    0.90907527538011    2.42719335754130
O          -1.49339038459367   -0.69289834999254    1.07436188476936
O          -0.30783281341040    0.51746476173333    2.79386767024698
H           0.44311964053614    0.80347410225752    2.25088282388625
H          -1.72733355893974   -0.90257949123140   -0.50661665320337
O           1.53968637461694    0.95930147312680   -1.51844517174041
H           2.06617136529296    1.54324523672111   -2.06512502201022
O          -1.75995006659741   -1.07664371684163   -1.48385337050795
H          -2.58387635035463   -1.53820346974382   -1.64311562795212
O           1.83553517345474    1.02040736455711    1.15862021112736
H           2.00267837218591    1.92983297596826    1.41094647383187
H           1.67794576653368    1.03947667920090    0.18481337415194
O           0.90379620966992   -1.68411102009543   -1.63470129700679
H           0.99190398315579   -1.77001284400601   -0.07689288016928
H          -0.05898764249612   -1.59075932823592   -1.76604723462633
H           1.26401127597741   -0.78774018680844   -1.77153563669705
O          -0.93853205935594    1.54380070801051   -1.80086570657845
H          -1.36614108505391    0.68477284671224   -1.94237189679587
H          -1.08305516421923    1.73343994040933   -0.84412758807794
H           0.57290556345723    1.23313830751242   -1.66630188899058
N           0.87934685877909   -1.61082088334305    0.97878500220132
H          -0.15205727242291   -1.26117100814127    1.10205220435592
H           1.49912131914209   -0.85370681667849    1.27779135583775
H           1.04403001001349   -2.45364151761325    1.51731779942026
