    26
        -50.46012849  Gyration_radius:  2.5203041429 Dipole_moment: 4.820
 S           1.77387043204838   -0.68660345544893    0.94245140468026
O           2.49766824306438    0.49620454443589    0.55631633811069
O           0.49004992365206   -0.45678540489683    1.57860809698778
O           1.65454872216755   -1.65152258872617   -0.15742976898783
O           2.65308835386633   -1.41600620579396    2.05358666486380
H           3.55936707719315   -1.30703630746789    1.77773703919783
H           1.14452810981898   -0.46784949735383   -1.23848390914461
O          -2.91271488360884    1.05502507746456   -0.29337584975071
H          -3.59185728740044    1.66319661243873   -0.58706816426009
O           0.75472200385894    0.22682964221199   -1.80612152952306
H           1.50074451826777    0.71687629156886   -2.15833391255535
O           0.85610828334205    2.24192574013180    1.78758417740210
H           0.42187978511541    1.45388446353723    2.13755121191541
H           1.63964054908847    1.88094727942446    1.34094013517916
O          -0.61524931467418    2.29946964904134   -0.46732612697681
H          -0.09151623416977    1.63813516646400   -0.94473578456787
H          -2.07109993480420    1.58487728014361   -0.25955309805393
H          -0.14052687626966    2.44754430118845    0.37873784726109
O          -1.86496194980250   -0.79325708438764   -1.84336290340222
H          -1.03998675390748   -0.36465294371115   -2.11741399422388
H          -1.38490048211860   -1.64281760557239   -0.70047501530717
H          -2.37054857297231   -0.10314053768604   -1.34162707037685
N          -0.88216675919017   -2.12650765311818    0.13994439594890
H           0.09978746245404   -2.33014126745529   -0.15021000185031
H          -1.37719447104239   -2.94178795822901    0.48336817049653
H          -0.70327996401433   -1.41680753819696    0.88869167693760
