    26
        -50.46012845  Gyration_radius:  2.52019897282 Dipole_moment: 4.824
 S           0.19206190470712    1.75749850945596    1.17483253703412
O          -1.11345746446867    2.22186895731136    0.78512858501565
O           0.25430694082331    0.38805939088805    1.65065572242178
O           1.20388559831899    2.00536120020901    0.14056552629344
O           0.63621552797412    2.64195393378468    2.42379518081392
H           0.32435482674220    3.52402846738326    2.23929860964400
H           0.22797788479492    1.36489215961568   -1.07088937535511
O          -0.29910094066303   -3.02123018784976   -0.67981272935165
H          -0.71012396192303   -3.78463554834224   -1.08678574737349
O          -0.32535064694145    0.89371239012136   -1.72552154616933
H          -0.96666467617223    1.53962923928988   -2.02929177566831
O          -2.45906130451339    0.07640503531637    1.70397112135001
H          -1.60555925425642   -0.19881536270040    2.06134851018856
H          -2.27998770653173    0.97140817073770    1.37138465901772
O           1.30303105878151   -1.38455748189524   -1.97261975588942
H           0.73598364808808   -2.09662516043219   -1.57900304026419
H           0.69849403818521   -0.65760372662432   -2.18590466597332
H           1.95920784484215   -0.86006496698545   -0.72655623270710
O          -2.05773410661601   -1.08105790343999   -0.69421324803786
H          -2.35391675464667   -0.76146250925457    0.18516292223583
H          -1.52383834521624   -0.36150617650395   -1.06398112141590
H          -1.01918330378069   -2.33986112064684   -0.59363775666000
N           2.26892506394166   -0.36363103171334    0.19576638535486
H           3.16426196691714   -0.69007936511215    0.54142286284119
H           1.50502766361493   -0.45003016908072    0.90669990965474
H           2.24024450800111    0.66634324646185    0.02818448300382
