    26
        -50.46012851  Gyration_radius:  2.52042204107 Dipole_moment: 4.815
 S          -1.64306260901510    1.19387287629463   -0.61869124256834
O          -0.85367116277269    2.39632493297128   -0.56422409441506
O          -1.05355015524977    0.08909777334817   -1.35189298961637
O          -2.09808408527683    0.76485354412644    0.70949072315571
O          -2.96875485050963    1.55572764975804   -1.42550800233466
H          -3.20344480876721    2.43899024588841   -1.15336795343984
H          -0.56010213627403    0.93214157814405    1.37115599897695
O           0.36398342863733    0.94283154753638    1.69154824548643
H           0.54531910893091    1.85790935069958    1.91628306054041
O           2.28332122495115   -2.10972238846778   -0.15903310505027
H           3.18658974763808   -2.41989763982253   -0.08629039831028
O           1.01349724846477    1.58349245847806   -2.32806601468088
H           0.43961527314355    0.81667953064341   -2.44948033803356
H           0.48346267963625    2.16672578630109   -1.76010500906049
O           2.35714930849090    0.50579028377093   -0.25784086163756
H           2.03137399114518    0.91540422207373   -1.08804073657040
H           1.69629987399340    0.72724800578250    0.41585290630411
H           2.34552593337908   -1.12809727096081   -0.31026264454266
O           0.68230089284264   -1.84219693853313    1.91002978800462
H           1.35302052202535   -2.03696437205072    1.20588273897867
H           0.75398313342884   -0.89120829594943    2.08280869380274
H          -0.57553274878651   -1.89418335853009    1.08933337430787
N          -1.44805928771174   -1.73700512603313    0.45138516912019
H          -1.13749362523395   -1.33551626305884   -0.46423471000704
H          -1.97851220510658   -0.92228501445525    0.83203044564267
H          -2.01517468199442   -2.57001311795239    0.34123696595218
