    26
        -50.45712005  Gyration_radius:  2.43846601401 Dipole_moment: 7.272
 S           1.48374632107482   -1.18864068965155   -1.44197893597420
O           0.16229268712648   -1.73766509592012   -1.19390713519729
O           2.14133810308456   -1.60466415902446   -2.62984393380943
O           1.43710624675785    0.30251084265967   -1.30737980920361
O           2.34264294214256   -1.62720415374144   -0.17475058206737
H           1.64346660190230   -1.72175449613523    0.49062364664064
H           0.12602901381320    1.18520333099001   -1.62304798449252
O          -0.67955630909469    1.76079240581521   -1.70158010000535
H          -0.53169419175092    2.32013206362067   -2.46479305192028
O          -1.95342600639027   -0.35892963365786    1.28540358668241
H          -2.75206291899692   -0.70029444241939    1.68875615641643
O           0.40140352027282   -1.57761565915805    1.76180009027061
H           0.23298909655153   -2.51878799869159    1.82787751282473
H          -0.46630076051020   -1.16732616661659    1.53326930168589
O          -0.88723595085732    2.12893949033599    1.00172619687144
H          -0.92774603004976    2.18833791187250    0.02819079492089
H          -1.42514076480500    1.34709798368871    1.22827668842262
H           0.54350906750186    1.53622997075373    1.21110473748922
O          -2.15103128642067   -0.53789905340974   -1.26255140455688
H          -1.34886414094328   -1.10245626592938   -1.36306112996976
H          -2.08326243689883   -0.45446023343027    0.28261682635997
H          -1.87109990027965    0.33474959199367   -1.58031732632686
N           1.44382823119812    0.95439957149539    1.15362921240723
H           1.53496209632759    0.68071228054149    0.09627936285625
H           1.32550140598390    0.08909132683907    1.68658159808128
H           2.25860537325802    1.46950124717654    1.46707569159520
