    26
        -50.45344793  Gyration_radius:  2.41516145871 Dipole_moment: 1.806
 S           0.37283273130705   -1.20001449175449   -1.25067341570050
O           1.00283415047231   -2.46893312830861   -0.65604842657022
O           0.40106284052207   -1.24466391464146   -2.66801384517827
O          -1.11371765919788   -1.25931747291464   -0.80121426658718
O           0.99466051574384   -0.05237934167655   -0.63724425657440
H           1.55686552641266    0.53785857161901    0.76983321916755
H          -1.19530107965488   -1.25128797630396    0.20502790732267
O           1.81954478288383    0.74533034610559    1.69499393721625
H           2.66085057540830    1.20116334945171    1.64757822636727
O          -1.36704177622439   -1.15634243032174    1.75148223873501
H          -2.27263107977153   -1.32877295964380    2.01492761100910
O          -1.69341796498173    1.58280258566646   -0.67845897156431
H          -1.04813263961090    1.78441668867397   -1.39607771960463
H          -1.99011319705128    0.68944113177581   -0.87193934999729
O           1.24248675088289   -1.94153804723755    1.83196046937769
H           1.17402031213373   -2.31916421681174    0.33629404116176
H           1.60603088041080   -1.04234049164681    1.93787612090847
H           0.30490020073389   -1.86309105503097    2.06883465435661
O          -0.91887827694796    1.34086108651262    1.86758756557027
H          -1.18174187701344    1.58694974338515    0.94882445384761
H          -1.21618919669985   -0.14986881925847    1.88097933863432
H           0.04799831696132    1.38212638759738    1.90508736114367
N           0.00861438557242    1.67115044358130   -2.78888850529809
H          -0.21857654056705    2.07128678893949   -3.69142033977219
H           0.10351039933532    0.66577904919019   -2.90477953660873
H           0.91952890887701    2.01854818303696   -2.51652851132245
