    26
        -50.45344795  Gyration_radius:  2.41515816984 Dipole_moment: 1.806
 S           0.93234825492887    1.25334013117004    0.83850157127220
O           2.14197118942868    0.66537784538329    1.58132013642173
O           0.77531895425384    2.62848399582867    1.14832559876459
O           1.31098510164106    1.14342148398618   -0.66476938366456
O          -0.21015047144600    0.40962963299277    1.08918975029574
H          -0.68929089462709   -1.13696080683565    1.24044892480466
H           1.45632213852102    0.18278515118511   -0.93906425457522
O           1.60730594091012   -1.29186508807167   -1.42149759071683
H           1.96939353812303   -1.33533145696394   -2.30819132109280
O          -0.80947966447371   -2.11288331632152    1.27282494994380
H          -1.40666164369221   -2.29364217563718    1.99981731660674
O          -1.34198888392273    0.86773731265363   -1.81133091514347
H          -1.74999370980211    1.40561315626043   -1.09283898141782
H          -0.44610042906369    1.20831895817130   -1.88141288081785
O           1.92957434357686   -1.85545528545154    1.22639465791300
H           2.10313869197217   -0.35035873471861    1.52442159785291
H           1.00415363986994   -2.12576475045933    1.37629780945155
H           2.04920792955028   -1.89107056924610    0.26425042893832
O          -0.88949794276708   -1.74862492822816   -1.51017494344235
H          -1.09309282884111   -1.99768337057270   -0.59669459176895
H          -1.21046361038765   -0.82378089776502   -1.63445393828810
H           0.61762245302677   -1.54984945855618   -1.50175530592773
N          -2.01581814992924    2.54161190685737    0.21418967852316
H          -2.47565727349829    2.04590658553895    0.96751396196297
H          -2.49099282712960    3.42778658388551    0.09077110424981
H          -1.06815382621928    2.73325809496683    0.52791660992165
