    26
        -50.45344779  Gyration_radius:  2.41477875525 Dipole_moment: 1.807
 S           0.54566190277247    1.10264348048092    1.27565440633286
O           2.04001141403374    0.92474025096690    1.58541411602275
O          -0.05606421200039    1.98812525357369    2.20603679841055
O           0.51870742501130    1.78646911561655   -0.11961793194399
O          -0.05429836901273   -0.20386859279462    1.16079564047490
H           0.17959042299099   -1.71010812093990    0.59369964256039
H           0.95405023444391    1.20674291296659   -0.82231653453555
O           0.47053679374061   -2.54862420996876    0.16936589224630
H           0.21597647933340   -3.25951405092538    0.75896127117709
O           1.54182454802470    0.30649964428435   -1.95051728114807
H           1.63799585144278    0.79185806652856   -2.77173412826430
O          -2.00816844241567    0.75580685357727   -1.10905708918404
H          -1.37541531769078    1.47737505310157   -1.05873415931226
H          -2.38720061827122    0.70203628788697   -0.20045815040390
O           2.75874983171371   -1.02219604472126    0.09557435739577
H           2.61985163875231   -0.61629173477534   -0.77459030217690
H           2.39364301579390    0.12903135597433    1.05813531710082
H           2.09403020993526   -1.73427134253147    0.15151869637913
O          -0.49213952879609   -1.20644711798926   -2.10307170114835
H          -1.17398153413984   -0.58189441549942   -1.75783541541459
H           0.75395332420495   -0.33637713058100   -2.08677672406872
H          -0.32768485962979   -1.85801567378012   -1.40580500175247
N          -2.72104291651234    0.95358798855115    1.50025731222784
H          -1.88254926945857    1.43501359759785    1.81390839550827
H          -2.72135538318789    0.04816403085374    1.95288394646907
H          -3.52468263140579    1.46951452249038    1.83830862711815
