    26
        -50.44742858  Gyration_radius:  2.48561847332 Dipole_moment: 3.626
 S          -2.26078269902869   -0.45087753869752   -0.04330362758868
O          -1.91548064383773   -0.69730815028668   -1.42313242925782
O          -3.13861583202057   -1.37658732585046    0.57280347111431
O          -0.92854153410393   -0.35783376085169    0.77374721712243
O          -2.76205072529087    0.99185898254055    0.11832252543418
H          -2.13816833145438    1.51281798777698   -0.47330864346795
H          -0.32716272971205   -1.15548158843762    0.63579140959373
O           0.64595649565401   -2.32690255757574    0.29123687678312
H           0.20652215063321   -3.17696228969030    0.35187562651237
O           1.47813663844058    0.98628829100571   -1.32734113997319
H           2.20255167637212    1.49392544556502   -1.69550775746677
O          -1.07635818570317    1.86979626076643   -1.59179991717635
H          -1.36829672073218    1.13110655677516   -2.14156998092431
H          -0.13859320055261    1.67329223329931   -1.38765042583295
O           2.31114456307930   -0.02040115562146    0.92555097362615
H           1.80471343552607    0.63427219652274   -0.44866479788700
H           1.80728082569072    0.44929888010131    1.63141335669750
H           1.98067381704331   -0.92549957210384    0.91759819487241
O           0.56060689105075   -1.47411734272522   -2.13817828270995
H          -0.39557726497443   -1.29306859210408   -2.08984626212629
H           0.98789403987821   -0.60407730870892   -2.03473319339880
H           0.73143842656922   -2.11406674192035   -0.69074451691957
N           0.66107675082823    1.22079620172045    2.69729192967591
H           0.59734551686254    2.23021436248869    2.66447907959523
H           0.63439968516719    0.93887165362720    3.66882679512742
H          -0.16011304522146    0.84064487232917    2.23684349848151
