    26
        -50.44609006  Gyration_radius:  2.38696063558 Dipole_moment: 2.322
 S           1.20766513998451   -0.91295848763710    0.55888114367695
O           1.79910755602035    0.10716886688108    1.38891915548400
O           1.42606387597488   -2.27285867978238    0.91078275334567
O          -0.32377476089174   -0.63418292060853    0.51715846046749
O           1.63552517850745   -0.68851836731054   -0.89633752218131
H           1.73692762288596    0.31300894511167   -1.04569804209251
H          -0.68046986843561   -0.45308660469321    1.44489110465892
O          -0.90838485029089    1.92249948705728   -0.86224971552497
H          -1.41111621623467    2.54273002682090   -1.39352975180049
O          -1.04628457464307    0.03383511477602    2.88494006882540
H          -0.39854460657466   -0.30063496541648    3.50942462165871
O           1.74557825603152    1.84231222400744   -1.02521977863711
H           2.06997711915103    2.06053886518159   -0.14587778501149
H           0.77194888097459    1.99683464886541   -1.02346762980420
O           0.06925436346670    2.14172276932152    1.78397048370126
H          -0.78412769648474    0.96830924154011    2.68499628446718
H           0.81509150715821    1.52058004553574    1.68488638483594
H          -0.38788784863925    2.15584987010125    0.92894193359428
O          -1.91736031589769   -0.38724497899981   -1.67826053995055
H          -1.27492976399604   -1.13760270699646   -1.70972561822490
H          -2.51719080562099   -0.61446256113318   -0.96477463915246
H          -1.22028642542012    1.01688050378003   -1.13553078258703
N          -0.29951451980979   -2.60926631750537   -1.61683195895225
H           0.44349714939860   -2.44334761401714   -2.28499543643378
H          -0.69066594241731   -3.52362414085597   -1.81233019691555
H           0.13990154566377   -2.64448226413715   -0.70296297735759
