    26
        -50.45344764  Gyration_radius:  2.41473091091 Dipole_moment: 1.810
 S          -1.48786036220968   -0.96121657791578   -0.06860970926764
O          -1.24578979943848   -2.42156502489660    0.34323651758401
O          -2.80760675053112   -0.79223985186882   -0.55998864283083
O          -1.36676310476312   -0.16032118559643    1.25762997981869
O          -0.42276443960953   -0.55461001145912   -0.95196154995465
H           1.17819968386576   -0.66537882654838   -1.21528862087289
H          -0.44848174527101   -0.25962111587263    1.66553714232898
O           2.15111349865496   -0.81085955554715   -1.20754210572644
H           2.41375467210168   -0.97172024335452   -2.11469728073329
O           0.98117259285363   -0.31961186725098    2.28271362410558
H           1.00040836700662    0.06614029368951    3.16022096781778
O          -0.41388889881816    2.37081565626738    0.20334370621465
H          -0.88975468461534    2.23995992988398   -0.65018714371962
H          -0.94537054290033    1.89302258314092    0.84581854032354
O           1.27509459187482   -2.54766350565750    0.73919492750520
H           1.73997903272301   -2.09501368394664    0.01057336034849
H           1.34771281912197   -1.94542650838669    1.49636484181904
H          -0.24693076437477   -2.56508388672853    0.47629016579681
O           2.00210847418078    1.31190218331395    0.62591811147659
H           1.46371422936521    0.34345029688259    1.66620652540813
H           2.22888364390285    0.74221439845653   -0.12366737685925
H           1.18550994482322    1.80605927952776    0.37463007830297
N          -2.01599767871550    1.71570988752922   -1.88471176686163
H          -2.75617426434222    2.30397275893197   -2.24857343204687
H          -2.44405665315163    0.90167497910146   -1.45191618417380
H          -1.47621188171735    1.37540960832709   -2.67053468582437
