    26
        -50.45344766  Gyration_radius:  2.41474925674 Dipole_moment: 1.810
 S          -1.13796205876592    0.79375844063918    1.10332394701467
O          -1.73139227125544   -0.19258928426013    2.12107246433162
O          -1.77789022577946    2.05598851308195    1.19831019372930
O           0.33850306275580    0.97269697579807    1.55393629995179
O          -1.15105775383695    0.16962805947662   -0.19681518164901
H          -0.90684997226117   -1.23382650346742   -0.98124008757231
H           0.84123592594677    0.09754926438578    1.52485377108010
O           1.67340503313291   -1.21530616372360    1.41356327114445
H           2.53732648022186   -1.11782416660276    1.81773148990888
O          -0.69371097803132   -2.14198035410532   -1.29371178441728
H          -1.34338935417774   -2.36400072343690   -1.96186356733216
O           1.55902817712667    1.53785423598197   -1.01844234119418
H           0.73597141810069    1.95873531555134   -1.36126154441372
H           1.52547141623154    1.69109860334275   -0.07031111436159
O          -0.75550569626545   -2.45339115265184    1.43992327664491
H          -0.81859590718403   -2.55434106558501    0.47155937125201
H           0.18316891455441   -2.28072530717237    1.61412135604792
H          -1.42220589740305   -1.13361029722318    1.88673732890344
O           1.91186246750708   -1.10858584924104   -1.11248334814408
H           1.83047751001251   -1.23532333082267    0.39989939146138
H           1.09284943048146   -1.52198434979157   -1.42260397466740
H           1.80665286422407   -0.13490204920253   -1.23515159263666
N          -0.80930121923836    2.77316610956263   -1.48849731926568
H          -1.40623960714897    2.21166911046141   -2.08268445518006
H          -0.90677502867399    3.73971562542127   -1.77586892366796
H          -1.17507674032311    2.68653032351405   -0.54409691695437
