    26
        -50.46788068  Gyration_radius:  2.39859825381 Dipole_moment: 5.651
 S           0.82391653268908    0.70778432551641    1.44202990006696
O           0.96180944631737    0.87178526545566   -0.00096677394527
O           0.97943338115681    1.94920581417230    2.15071379514005
O          -0.47542014046896    0.05835698907354    1.73555187961484
O           1.92945280400523   -0.28812616598410    1.90997757803453
H           1.87408381411698   -1.07148840552389    1.31195374064067
H          -1.38992800233144    0.76715644225294    0.75888083766978
O           1.80764725703175   -2.32136261690925    0.18900395881446
H           2.67388483781655   -2.72973814831215    0.14634946866342
O          -1.53046907604894   -0.79671488211417   -1.79273347030824
H          -2.23265026341988   -1.24340218536461   -2.26735591511230
O          -0.14719648209273    3.35133591838822    0.20645503109349
H           0.54403349392418    3.23897658085906   -0.45263131968117
H           0.25732584504471    2.99607183785648    1.03224164728830
O           1.32225258011308   -0.86216724217822   -1.91636995045409
H           0.40285420617554   -0.94411309025204   -2.20247654943971
H           1.30330394609213   -0.09697253892270   -1.29972546017389
H           1.67900284938278   -1.83634218514201   -0.67818699362235
O          -0.97061108788280   -2.14825483863054    0.37095080895662
H          -0.84726376363785   -1.40278426161745    0.99909024577747
H          -1.33029149625264   -1.36481769862371   -0.99274640316776
H          -0.10071920012877   -2.56480608741462    0.32240708150706
N          -1.81910775801254    1.31060631892887   -0.06410608030675
H          -1.21458991945785    2.18355669691324   -0.11516169075923
H          -2.79341983126556    1.53979389853008    0.10319068750359
H          -1.70733397285812    0.69646024903695   -0.89633605379449
