    26
        -50.44609004  Gyration_radius:  2.3869683626 Dipole_moment: 2.319
 S          -1.58985265988124   -0.02194683323823   -0.25365011024843
O          -1.51136231974927   -0.19000570651500   -1.68378148770971
O          -2.76139545686214   -0.47731550392318    0.41054103799983
O          -0.34592029444573   -0.73166717983507    0.35715693284375
O          -1.34759668625571    1.45174984721613    0.09387036385349
H          -0.69774895848106    1.83534458131278   -0.58877224754799
H          -0.21975992318609   -1.64807351938968   -0.04929037281598
O          -0.01050205347326   -2.93069226594479   -0.91779467210276
H          -0.84268041842092   -3.18109964383953   -1.32540946396882
O           2.15611437534803    0.63759908900312   -0.45890305942748
H           3.06062097459416    0.94440520411034   -0.37262130463265
O           0.32954128728148    2.13719677714098   -1.68135747403848
H           0.02275765588481    1.61965932582601   -2.43249987043304
H           1.10079096459792    1.66071108660715   -1.29437612897898
O           1.47864656791228    0.32204262775165    2.08336346418526
H           1.55072580644247   -0.62760330164842    2.19949141823912
H           1.82093403083495    0.51843118527696    0.47130050410139
H           0.53551274957935    0.52587742574672    2.29660204697304
O           0.95365575548475   -1.00595296936435   -2.42216333794411
H           0.50051174536254   -2.43613267934200   -1.60795208571948
H           0.04653956035610   -0.66169072819773   -2.31971663273513
H           1.49862483671246   -0.53138494282914   -1.77563845857222
N          -1.15977073145402    0.64621027783814    2.78756288936971
H          -1.46462912315643    0.41082468584407    3.72508091871429
H          -1.72047671079208    0.11240683373046    2.13171386129442
H          -1.38328099485100    1.62110631691068    2.62724326928035
