    26
        -50.45564923  Gyration_radius:  2.41830176436 Dipole_moment: 3.082
 S           0.17384666922417    1.68206553695671    0.60422434396191
O          -0.11474493473429    1.21483334165118   -0.73041211427486
O          -0.56122705850194    2.82488283442966    1.02710106204586
O          -0.00390759480221    0.50654836209958    1.58254490656949
O           1.68984966597713    1.96500287264224    0.71663552533556
H           2.17721870411602    1.17397190127327    0.34977438322677
H          -0.91202903418833   -0.02754484256696    1.32061118232285
O           2.89024344262837   -0.11381984234675   -0.31384921619903
H           3.71840307584691    0.15040077442776   -0.71855708559062
O          -0.36607899928976   -2.41171856519102   -0.54351543498587
H          -0.60775988636840   -3.33869911584110   -0.52075172598700
O          -2.01194497482168   -0.68704767867655    0.80718386313047
H          -2.45749773742986    0.08064168781403    0.33630002715884
H          -1.59815900594411   -1.26936172119424    0.13926158991048
O           1.11915663332108   -0.67099916658515   -2.10603712587692
H           0.60743441536850   -1.43189170701969   -1.78702545158712
H           0.59395235907263    0.10168676631243   -1.81813174447438
H           2.27042501716545   -0.37034531060290   -1.06978370214258
O           1.44070802923176   -1.84616254979613    1.31401777895126
H           2.18559335350218   -1.43883790186904    0.84989568170050
H           0.98192118915661   -1.10990296099154    1.74406692764834
H           0.31034421867659   -2.28401101318014    0.17166817161050
N          -2.88037129608383    1.56706538313117   -0.24197841331833
H          -2.26106064972902    2.17804379793345    0.28611400808604
H          -3.81855897699604    1.94590250632840   -0.19561225766698
H          -2.56575663175954    1.60929660248939   -1.20374518758876
