    26
        -50.44506444  Gyration_radius:  2.49519730717 Dipole_moment: 5.633
 S           2.25305937250063    0.06546268796361    0.76520598775146
O           2.33155757158515   -0.11734712995830   -0.65649679470085
O           3.44489434810782    0.28512038309649    1.49547805895111
O           1.24013371420909    1.22862200702684    1.04371878310432
O           1.50440063942793   -1.14578265952025    1.39049182090929
H           0.89146441551480   -1.56574559545415    0.71987646050938
H           1.02848862462179    1.70847648180906    0.18844750706950
O          -0.04029867273317   -2.32414118882383   -0.33250268760012
H           0.27785343419097   -3.22202359884483   -0.43877722978676
O          -1.50496194429755    0.87357255088074   -1.80725115047323
H          -2.28036745768917    1.00684935050351   -2.35326871726134
O           0.47229862324726    2.50558658701091   -1.04749267106711
H           0.07690734730499    3.33216921428007   -0.76321572934665
H          -0.25466453841595    1.94555558810914   -1.39583518036750
O           0.50369670640427   -0.93403696725774   -2.42757595942665
H          -0.16799979174130   -0.23138500420298   -2.39964287027009
H           1.30163288363715   -0.55757131469185   -2.01194350185456
H           0.14870713374017   -1.85024962340486   -1.20654179962701
O          -2.19671501587858   -0.62303702040941    0.19429420205238
H          -1.90465366363753   -0.26694385553948    1.06875168673488
H          -1.64358718652481   -1.40325869310186    0.05059207322209
H          -1.80587380748861    0.32934222350899   -1.01827279982746
N          -1.09568706558924    0.18139163602861    2.53008460075466
H          -1.54385875067643    0.76288966631341    3.22703215832252
H          -0.27307942018653    0.67268557883269    2.19195194728975
H          -0.76334749962998   -0.65620130414048    2.99289181493237
