    26
        -50.45564914  Gyration_radius:  2.41834898427 Dipole_moment: 3.082
 S           0.84731406109025    1.48701339685809    0.54464731466994
O           0.77916005980674    0.90499136534567   -0.77423122163573
O           0.74518200883957    2.90549229996505    0.59593336212867
O          -0.21712759635560    0.81486042157944    1.43086060257263
O           2.16087254632863    1.03320580767181    1.22293299876845
H           2.23632731101485    0.04335787024311    1.11279937712686
H          -1.13794687290382    0.73050850230628    0.86185621086364
O          -1.40419772125212   -1.99794509039819   -0.53151251125583
H          -2.09464302792880   -2.66168703096546   -0.56206751064926
O           2.31611159508345   -1.54663681446358    0.83990589366383
H           3.23379049519016   -1.81763891503411    0.77835080755915
O          -2.20001112431642    0.57063208802995   -0.00659025241313
H          -1.99989584632248    1.31754641634953   -0.64829927406518
H          -1.97842142472381   -0.28055475823218   -0.43416315539043
O          -0.24786690314467   -1.92693784202803    1.85412582847290
H           0.69914784591733   -2.04834695097868    1.69686290313315
H          -0.35084566262141   -0.98207425650351    2.03868938340579
H          -1.02213058179439   -2.03729127788985    0.38388616458108
O           1.17281246755911   -1.61075389464778   -1.47242499057048
H           1.92292608812149   -1.65229096271502   -0.08518500495423
H           0.26636291606250   -1.93339862263761   -1.34260858828346
H           1.08087316216699   -0.63775230525512   -1.44756210277743
N          -1.36757350670265    2.63593130313517   -1.41263469693196
H          -0.71545484080136    2.98707509368833   -0.71458323992030
H          -1.92250333551453    3.41286718238889   -1.75066548399325
H          -0.80226211276944    2.28982699419091   -2.17832282408173
