    26
        -50.45564922  Gyration_radius:  2.41814917897 Dipole_moment: 3.084
 S          -0.72103119368408    0.81281010752976   -1.42902681289979
O          -1.02723282048571    0.97984600224496   -0.02858642060884
O          -0.69040781502831    2.00988473258007   -2.19799396887123
O           0.60125453232450    0.03370050086073   -1.55019200059202
O          -1.73451923014967   -0.17880737531639   -2.04617725983106
H          -1.78555719470694   -0.97697712749775   -1.44778638622352
H           1.30613421977460    0.43450470081954   -0.82730361052915
O           1.28601776713868   -1.13638876226842    1.81618181535571
H           1.97081374863849   -1.53900150388805    2.35204641561818
O          -1.85692100737902   -2.20418316612705   -0.40059318879422
H          -2.73357108874433   -2.59222921373979   -0.41914189529840
O           2.05594830421041    0.94713816246303    0.21211559679147
H           1.62546891873549    1.85144440484176    0.29390474785870
H           1.76300843550455    0.38923307897396    0.96007117172599
O           0.91243707466547   -2.48680097815178   -0.43548573296612
H           1.01179849572054   -1.75545307348436   -1.06224111190432
H           1.20528354517384   -1.69800836266295    1.00161219084390
H          -0.02832378344542   -2.71148073248627   -0.46158621914988
O          -1.47311524033478   -0.88680534261479    1.78484018008259
H          -1.43336180385960   -0.05671156677144    1.26996045828280
H          -1.75948952521093   -1.75846328313293    0.50128016058926
H          -0.55348749803158   -1.03428394994027    2.05904316841760
N           0.71450727242494    3.20898321070716    0.07296120519058
H          -0.03727997042615    3.17293855386012    0.75054705134543
H           0.28876500373851    3.02662379574781   -0.83323456327648
H           1.09286084347909    4.14848718743927    0.06478500899728
