    26
        -50.45315528  Gyration_radius:  2.46526917514 Dipole_moment: 1.851
 S          -0.08472111811253    0.20881198513408   -1.89567798125350
O          -0.83076621688345   -0.12792235865703   -0.71022478847143
O          -0.48993106001547    1.40183535883521   -2.55835052643751
O           1.41584137439000    0.30803586110863   -1.51372893622357
O          -0.11915541013772   -0.96781200923158   -2.87777928675434
H           0.04543885323996   -1.79328518874863   -2.31982134878541
H           1.56467751641691    0.24063285565715   -0.51823851513370
O           0.41441550401871   -2.95108366552472   -1.36038722152384
H           1.26778420037667   -3.33366169809747   -1.57433496906393
O           1.86860273297644    0.19884766166216    1.00349135215487
H           2.67281575802310    0.68060434081335    1.20420392419884
O          -1.66482117488464   -0.84147673754993    1.68337645735256
H          -2.57122115194355   -1.15067080401291    1.65710249000361
H          -1.43692582454497   -0.57587545880660    0.76948493384282
O          -0.09174237400112    1.47290113469216    2.01832306310734
H          -0.74191702651682    0.76565114697329    2.13870830897805
H           1.10416062893934    0.71718395486528    1.44175850747583
H          -0.42485900286731    2.02784899261042    1.26442622074464
O           0.66030549050208   -2.29073190203886    1.17255988099026
H           1.24143200388504   -1.51572895756584    1.18172264154385
H          -0.18950829213753   -1.96539612291898    1.51136873872426
H           0.45030834188395   -2.71801615299375   -0.39143888894310
N          -0.92605152642671    2.91880569926941   -0.09980466498559
H          -0.80385468212974    2.35204060447467   -0.93684374021998
H          -0.42050573651804    3.78438918068978   -0.24739988031797
H          -1.90980182753241    3.15407226935283   -0.04249578103951
