    26
        -50.45807532  Gyration_radius:  2.42070623184 Dipole_moment: 7.663
 S           0.49311658772491    0.94849430047638    1.92228464644686
O           1.46832701178623    1.37580918978326    0.92943638878866
O           0.68198385613685    1.44424795824989    3.24084053096454
O          -0.93004210066401    1.42217472604960    1.38508826248376
O           0.35221066696776   -0.53882934783883    1.88826391570729
H           0.96943500054982   -1.52851021299935    0.76498084653045
H          -0.72949103133253    2.07655497882084    0.66182489586863
O           1.21487737006759   -2.15751322149593    0.03738998939499
H           1.68772541448880   -2.87760407527491    0.45579634635815
O          -0.19029954094120    0.63054576069052   -2.33436099234303
H          -0.10504664845341    0.76413100677111   -3.27917406634707
O          -0.12389613516603    2.81780292107209   -0.61653947106626
H           0.74254527348593    2.60037411427844   -0.23062845607808
H          -0.26206701289998    2.16866897549380   -1.32944262087388
O           2.10533594517067    0.08251982017351   -1.28053079289755
H           0.73724491027711    0.43382103547539   -1.99282385993644
H           2.02370861419503    0.61008312880089   -0.45504828857439
H           2.01842811976830   -0.83698590273625   -0.98456777563821
O          -1.13717611090143   -1.68114959491444   -1.29820744975124
H          -1.78961162593338   -1.30405114628864    0.04951999445089
H          -0.91492070345347   -0.84111640075638   -1.75353582438902
H          -0.28314977760269   -2.03288675431417   -0.98751128321684
N          -2.00584972904651   -0.99231050940116    1.05933186881614
H          -2.57550867601657   -1.66698524700743    1.55823220241407
H          -2.42568865373311   -0.06319768299378    1.06591219587061
H          -1.02219103444016   -0.85408781012819    1.52346878700337
