    26
        -50.45098305  Gyration_radius:  2.43001419585 Dipole_moment: 1.551
 S           0.82329112621921   -0.64820547253798   -1.38856604337452
O           2.04693847365135   -1.14173743426196   -0.82465989323726
O           0.54405294909178   -0.91340668624180   -2.75392478593424
O          -0.36115703923136   -1.18733109059149   -0.54587786474971
O           0.76777984165742    0.89082777419683   -1.18343697660463
H           1.11435751330736    1.13847890155809   -0.27261766916061
H          -0.13170310619733   -1.34219296841169    0.42002460635243
O           1.44348856484439    1.59753708590345    1.19737541136768
H           1.56087789680129    2.54795969025042    1.24571468176215
O           0.16248741772292   -1.60620386261296    1.93791558919530
H           0.12288135267963   -2.54208147546779    2.14195598908137
O          -1.93471541687080    1.56028195084160   -0.46502597187214
H          -2.19383990079634    0.85014503674089   -1.10189840314916
H          -1.16876125423560    1.96908047656647   -0.87597470527504
O          -0.93505427168038    1.01668882662702    1.94663304985843
H           0.52871726050541    1.40503071593135    1.59405664354211
H          -1.43801931104082    1.18490659408612    1.11336907866924
H          -0.92266804715767    0.06253091760032    2.08361868800587
O           2.62635064619453   -0.84961676847263    1.76420833583927
H           1.13150540071421   -1.34095190801801    2.00370431203481
H           2.66331183077115   -1.06182715418456    0.81143898190475
H           2.53834388337873    0.11281163599811    1.79865487391588
N          -2.27037106351381   -0.23060174526311   -2.46495765233300
H          -1.29753261076373   -0.43599026277316   -2.68112397825898
H          -2.72291835591960    0.06671915015909   -3.32110260633489
H          -2.69764377987163   -1.10285192748895   -2.17950372094194
