    26
        -50.46300097  Gyration_radius:  2.47109194792 Dipole_moment: 4.052
 S           1.55863892176288   -1.25376289308799    0.62766111149179
O           2.71761622302266   -0.51957678218792    1.05326990915823
O           1.65491012937890   -2.68904783589404    0.63314704915551
O           0.40044681413782   -0.92836349205243    1.71765076832489
O           1.00157140123241   -0.72623769139856   -0.62094221509794
H           0.00060442304098   -2.88110816778047    0.21084360197363
H           0.59850962393277   -1.53753151809656    2.42221999283586
O          -0.94659911347683   -2.96884841405707   -0.00992887412212
H          -1.02309385935732   -3.81568049996902   -0.45327907736622
O           1.33897709048865    1.80478463604390    1.00674402056586
H           1.90404147449438    1.01483594663609    1.10012809224466
O          -1.65868630953943    1.65628606468505   -2.20630587764700
H          -1.95718523115351    2.50327479007684   -1.86997338205402
H          -0.67977591021025    1.68942353613748   -2.18697265434673
O           1.04631404791593    1.59033229999728   -1.85038986950420
H           1.68468777878708    1.58139734349929   -2.56508745196300
H           1.09431985321725    0.70013112624282   -1.42979037086997
H           1.35142246391383    2.03097913663585    0.06822097853534
O          -1.18675171565636    1.40448508946147    1.75890545188060
H          -0.26251859551838    1.64824182095895    1.50076956341212
H          -1.54673544648502    0.35136110989141    0.57420036347487
H          -1.08232699079789    0.89277385530868    2.56316787312184
N          -1.55095208625070   -0.24541229320871   -0.29826116479337
H          -2.05357194235820   -1.12277316256047   -0.17827584952448
H          -0.54324292706184   -0.51166218187648   -0.46178686543022
H          -1.86062011742486    0.33169818660351   -1.10593513348501
