    26
        -50.46300126  Gyration_radius:  2.4712550522 Dipole_moment: 4.007
 S           0.01245861160807   -1.80915622731516    1.06041451692016
O          -0.27834153277196   -2.94130106351327    0.22509141622407
O           0.20466788150253   -2.06415453019540    2.46283897807109
O           1.44797049056857   -1.24358696132154    0.55568982802381
O          -0.89645739856653   -0.68831942646866    0.80573383975640
H           0.65182443261846   -0.43562882318469    2.78338345721402
H           2.06466360753809   -1.83916054614245    0.96999865865636
O           0.91424876380082    0.49127911357929    2.94333980015508
H           0.69147891474154    0.65998346732491    3.86052621540356
O          -0.04832477116995   -1.42949297386423   -2.00375712472407
H          -0.10704710465350   -2.06324484520583   -1.26417928518164
O          -1.39323718983594    2.66825091111952   -1.13446484339915
H          -1.84366998776738    1.80101369822852   -1.20152452298424
H          -1.09031548874952    2.87614925034613   -2.02026276282037
O           1.85027278258381    0.41708937029415   -1.69416843839136
H           1.15484150838257   -0.25592120816536   -1.90293008378961
H           1.16878948145412    1.14281185158805   -0.40669284021705
H           2.59184827979929   -0.09732625100331   -1.37026139464974
O          -2.35281063320854    0.11332580881300   -1.22412269551006
H          -3.27300159503306   -0.12028311422637   -1.09320317632315
H          -1.86939562769098   -0.22803401977033   -0.43600458945163
H          -0.90467967584948   -0.98530297698486   -2.04195586404095
N           0.51081373631132    1.47136925669223    0.35201364126079
H          -0.13426817923669    2.18552783651808   -0.04137369018735
H           0.99276382355954    1.74808056964162    1.20548499682777
H          -0.06509311993581    0.62603184311767    0.61038595300672
