    26
        -50.46788061  Gyration_radius:  2.39882336875 Dipole_moment: 5.650
 S          -0.67659287561602    1.17258349539840    1.19456697887195
O          -1.14828952027298    0.60885421804184   -0.06559495897627
O          -1.73165103945913    1.30712044422782    2.16220483150897
O           0.44532208007753    0.35010698665299    1.70544012388157
O          -0.08440610801409    2.58238552192605    0.88689413951627
H           0.54168562212639    2.46536987653004    0.13280816144201
H          -0.05297364989991   -1.04900324538617    1.40975615486223
O           0.94573004365145   -1.91501918430924   -1.27820290847249
H           1.51841997441674   -2.61843092731692   -1.58655378971478
O           1.49836595623253    2.22224911413106   -1.22875264927509
H           1.54794216484593    3.05091012849124   -1.70817532571020
O          -2.96682688359772   -0.87699572047421    1.31427131637860
H          -2.63508216920761   -0.07330029157147    1.77874054261357
H          -3.23651938153373   -0.54643965115628    0.45238635929198
O           2.38389338691060   -0.13263118070074   -0.02238124462047
H           1.54246599508320   -1.24500195942182   -0.83360422132557
H           2.44063549787166    0.69827552859533   -0.51117939129076
H           1.77611328096297    0.06686642967009    0.72348696210414
O          -0.05060229209059    0.50269563382362   -2.42977421010397
H          -0.62760944542506    0.56848226567871   -1.63673071843040
H           0.94050310452538    1.60442158295478   -1.78615668785418
H           0.30323948071676   -0.39499573645521   -2.37763957262605
N          -0.54703412781616   -1.92115556924882    1.02005431049129
H          -1.57319627973649   -1.64403118634086    1.04013256819514
H          -0.36997329276861   -2.74103384913104    1.59124005919347
H          -0.18355952195694   -2.04228271456846    0.05276317001574
