    26
        -50.45098300  Gyration_radius:  2.43003848119 Dipole_moment: 1.550
 S          -0.10633946165017    1.00500083792202    1.41659852565828
O           0.58974011140490    0.22967214313116    2.40317096958439
O          -0.53069749704946    2.31640918190857    1.75226285309502
O           0.78018536518176    1.10045479337422    0.14825888786614
O          -1.35526677183642    0.20738782240838    0.94956518525396
H          -1.13550516477289   -0.76910869789513    0.85453193931037
H           1.37935924230606    0.30504393943912    0.01392904252702
O          -0.83159482442024   -2.26879151265973    0.48107832302252
H          -1.64189134219818   -2.76692095600198    0.35972597363874
O           2.33971317352803   -0.90594482990862   -0.25200339340102
H           3.25842789396366   -0.64721327306705   -0.16194761336860
O          -1.57867524104338    0.55477947006781   -1.89580975962026
H          -2.13937371846791    0.36171400308921   -1.14015614308109
H          -1.26216799003583    1.47571651292679   -1.72596825516511
O           0.05311720733372   -1.55276183515587   -1.81262341387027
H           0.95508713725378   -1.25643970189228   -1.64525326689286
H          -0.46629176846310   -2.09204704228392   -0.44981977903423
H          -0.49248256066305   -0.74633787845479   -1.97845113346936
O           1.57824880540547   -2.18826393935909    1.85707010168948
H           0.75226532547358   -2.58978748336251    1.55418120858059
H           2.13327775962665   -1.50180480071264    0.53288041955250
H           1.30455199880918   -1.36442695552829    2.30500406065010
N          -0.97173480621419    3.04518484050418   -1.03111261971303
H          -1.64286561624475    3.79108861694230   -1.17032446728773
H          -0.06778337559915    3.38612872734373   -1.33369018596815
H          -0.90130388162343    2.87126801722812   -0.03109746960627
