    26
        -50.46656050  Gyration_radius:  2.45800062955 Dipole_moment: 4.218
 S           0.80008281904341   -1.54812103717999   -1.22043117865757
O           2.03408510341681   -0.81921664442495   -1.00340693117284
O          -0.06290079015707   -1.56608683158503   -0.04909270118305
O           0.10335440864244   -1.12701793855908   -2.42095702915298
O           1.21214792934988   -3.06199186587925   -1.45171250141157
H           1.74347688128804   -3.00517810410310   -2.23870221435314
H          -0.73567247605854    0.21957631483492   -2.32929478298088
O          -1.22237961618502    1.07205174649860   -2.16822729468554
H          -1.50169272882621    1.38414432642251   -3.03026606174262
O           1.82336964599115   -0.98497858406847    1.70961748965212
H           1.05117868485840   -1.33512949268049    1.22401126632572
O           0.88435133656672    1.47055156465203    1.90503500804752
H           0.99452743613639    1.70342181444182    0.94725934652389
H           1.33061285124417    0.58762825126538    1.98556244058280
O          -2.30710311377853   -0.21260716602600   -0.04294232748785
H          -1.57386668510873   -0.86798984053092   -0.08072959174106
H          -1.92146581026827    0.47626684017101    1.25860585068663
H          -2.14118247263673    0.36579281361336   -0.80943678226765
O           1.07608093875236    1.66569013173267   -0.70649621588686
H           2.48010784943506   -0.88264937767652    1.00940450342939
H           1.52732174649957    0.81857189857650   -0.88737064268103
H           0.25528820236218    1.64785981665916   -1.22084171543184
N          -1.57746937116459    0.90165596386732    2.19271923428987
H          -0.48837689493366    1.18009372146874    2.07305734868084
H          -1.65687820819975    0.19848127642899    2.92026009400011
H          -2.12699766627102    1.71918039207928    2.43437538862281
