    26
        -50.46656054  Gyration_radius:  2.45815414248 Dipole_moment: 4.204
 S           1.60318923691153   -0.78995186748636    1.15503838755576
O           2.18828003344466    0.50760410017075    0.88061964203153
O           0.16648128971244   -0.72983019211028    1.37763023893547
O           1.97467329962877   -1.79208511505851    0.17446029646405
O           2.21454822689394   -1.26992213851950    2.53746473270379
H           3.14355396775685   -1.31561142207420    2.33804663972364
H           1.19958079232167   -1.76361879643667   -1.21259640693334
O           0.06571749417783    1.85032400549511    1.94537427881244
H          -0.05110240745037    0.88143588759280    1.89561896433900
O           0.66211059388366   -1.65525867477928   -2.04260198025606
H           1.07362084701437   -2.21865999364874   -2.69971730164945
O          -0.97401695765418    2.33359467467846   -0.42842158024929
H          -0.22069619571261    1.95772049808763   -0.95274196127486
H          -0.63863679895547    2.32328270104726    0.50570200483739
O          -1.48519493843715   -1.73467272932799   -0.39199847290544
H          -0.89584612727410   -1.51685076837793    0.36545009894918
H          -2.26169585606113   -0.42688837949290   -0.45124167187819
H          -0.87346891050014   -1.81502883646329   -1.14636824758844
O           1.05617548862006    1.04843580706684   -1.48735717048369
H           1.58350557296090    0.90563727095090   -0.67776148345895
H           0.88927479083306    0.16904308724144   -1.85792006842512
H           1.00869044314781    1.95546432618999    1.76744612160389
N          -2.76675623402779    0.52996943302611   -0.41463172869371
H          -3.40403203526177    0.62552690531433   -1.19789244912529
H          -1.98238269061180    1.34356126662998   -0.44262550417769
H          -3.27557294540884    0.59677898026120    0.46102461111924
