    26
        -50.46656052  Gyration_radius:  2.45790861532 Dipole_moment: 4.202
 S          -1.74106245198334    0.87326508087116   -0.85549015391286
O          -1.80831929989077    1.54082432865198    0.42948950288114
O          -0.37910363062503    0.71186340644538   -1.34146255338684
O          -2.49461897407083   -0.36571554378476   -0.88444843800139
O          -2.43784723907044    1.84439903409596   -1.89784956790763
H          -3.32207661734462    1.90423912352828   -1.55219573284970
H          -1.81242259499504   -1.63841605778827   -0.22099611763812
O           0.69774453892477    2.58710201455573    0.17950746950251
H           0.44291649562337    1.97202886652201   -0.53570244463240
O          -1.30215164094261   -2.36696698302736    0.22446392101230
H          -1.91803759887517   -3.09325675479771    0.33269940801538
O           1.75930568181352    0.72714299973456    1.71672724908477
H           1.47719709024742    1.54143450087313    1.22427350327840
H           0.90214361536554    0.29721813483486    1.97017801393787
O           0.71517259545096   -1.66730843205717   -1.44421787723599
H           0.09248565906224   -2.14863760800204   -0.86961711913462
H           0.27619262918125   -0.79847712268973   -1.58925338995258
H           1.92162180355818   -1.17545616621875   -0.65681788768084
O          -0.64007308792613   -0.30599789943044    1.98117047393241
H          -0.14339623615610    2.74769924600425    0.62517652289005
H          -1.15398876075055    0.38488419883305    1.52028904632325
H          -0.82607253276937   -1.13499114511760    1.51557673243783
N           2.74817325992686   -0.73631400213903   -0.11295894481479
H           2.32365104165648   -0.09967127837976    0.71908172601056
H           3.27408231030543   -0.14052443930235   -0.74423032948349
H           3.34848395428395   -1.46036749219329    0.26660698732931
