    26
        -50.44506456  Gyration_radius:  2.49479185224 Dipole_moment: 5.617
 S           0.43643241136839    0.91305099860563    2.15273218446775
O           1.67725590179596    1.00494744118189    1.43671892624305
O           0.33612599987998    1.51028023545982    3.43148594880703
O          -0.69667443154478    1.46474585295559    1.22100298796516
O           0.03096562305755   -0.58372058083450    2.27194448501690
H           0.42948677071992   -1.11744671956516    1.52499366304638
H          -0.29056251831334    1.93185993041607    0.43147965833108
O           1.10581661318220   -2.03040764567953    0.40229284636803
H           1.67522306315106   -2.67430401880445    0.82643535682334
O           0.39762076160893    0.40693475893598   -2.44649955209198
H           0.41522757069227    0.27221918286924   -3.39448738590767
O           0.14136544581060    2.59268991814357   -0.92805863664553
H          -0.57444884492904    3.12001979183925   -1.28840243194256
H           0.27468625766799    1.83587568070239   -1.53866833763623
O           2.51835565960746   -0.23344809046008   -0.77792220514599
H           1.91581330992889    0.09642125063618   -1.46617258646305
H           2.42729123595453    0.38083309855385   -0.02581227804781
H           1.71672062789216   -1.39161269592759   -0.09065007666083
O          -0.97329223008915   -1.53017371710547   -1.40031812595470
H          -1.66299425396279   -1.22514613459000   -0.76163200081786
H          -0.17351300652575   -0.32758815713801   -2.06805866225247
H          -0.30514316678883   -1.96258310900386   -0.85084701071412
N          -2.60551795162089   -0.70965712215951    0.59449689040784
H          -3.59331273551557   -0.50497853648085    0.51007390023061
H          -2.13191273343554    0.14012007654395    0.88757582848662
H          -2.49101537966274   -1.37893170911367    1.34629660405841
