    26
        -50.45039958  Gyration_radius:  2.51234186205 Dipole_moment: 7.270
 S          -1.30000920446446   -0.14726025293850    1.91311200297572
O          -2.00775010264985   -1.02826302756025    0.95111828560848
O          -0.86050054871544   -0.81428840260360    3.09232114339357
O           0.00437597946841    0.31123906026186    1.10160314667017
O          -2.01293834326528    1.11313667135383    2.07022888098569
H          -2.28955894484870    1.43660193075962    0.57849593243789
H           0.61272430068858   -0.46558774111233    1.05815367320012
O           1.70942807845935   -1.68908945343060    0.85752324540439
H           1.90698808934555   -1.95669274485520    1.75707558136132
O          -0.40150259864943    0.60576971839585   -2.09846111108751
H          -0.44628890262577    0.48222282950200   -3.04750163493009
O           1.59594223633417    1.79993790910477   -0.55670329221092
H           1.10254772767729    1.63036169616933    0.25767423057929
H           1.00724256271434    1.47466866728499   -1.25588102748267
O           3.50655126486222   -0.01682095565653   -0.11158887664843
H           2.89551524475819    0.74277250633995   -0.27087871705381
H           2.47237649950349   -1.14539402323059    0.53556495794873
H           3.96874951477708   -0.17104364468391   -0.93649240078512
O          -0.38920939268305   -1.77122508323117   -1.01761683545659
H          -1.04453240954416   -1.66004877610868   -0.29439250242206
H          -0.33811204975398   -0.31329674261565   -1.70265586174685
H           0.43504859039646   -1.99128798524789   -0.56490203244835
N          -2.50485928642850    1.04219299021327   -0.39876457931896
H          -2.51158619667272    0.01984795410282   -0.06908139690258
H          -1.72159558309511    1.14777336492028   -1.07134560064209
H          -3.38904654559436    1.36377354486699   -0.77660518142267
