    26
        -50.45039953  Gyration_radius:  2.51239655085 Dipole_moment: 7.269
 S           0.24833241128016    2.18013751781679    0.74748997539446
O          -0.17698421556629    1.44864170324363    1.96651694784256
O           1.51893255934143    2.81251963147779    0.86630854438427
O           0.38588959472319    1.01915620840672   -0.34968742074686
O          -0.85538141500879    2.96648823662373    0.21342588464040
H          -1.98215569934346    1.90458951023826    0.28622216785637
H           1.19975815397104    0.50336542523656   -0.13315681709909
O           2.50108124441445   -0.48486166341544    0.13351890639437
H           3.24362647448192    0.12211894218287    0.12606906298824
O          -1.68120663718257   -1.44914123600920   -0.00581591250054
H          -2.12347181709294   -2.27133305956876    0.20946789424119
O          -0.33040211823611   -0.72299489282430   -2.33764298261340
H          -0.86933450765770   -1.13828021714507   -1.64595736269072
H          -0.12443035080926    0.15016858372909   -1.97636178129559
O           0.26627823338556   -1.15611648243524    1.70871949683071
H           1.14584082284879   -1.20009911232587    1.31221352231231
H           0.15957245502955   -0.21426455958555    1.96625947814622
H          -0.90268538689396   -1.38106677864590    0.62239938678692
O           2.16030046031202   -1.68360653028868   -2.19281214729876
H           1.25068155735671   -1.34392822041833   -2.37465258682707
H           2.49886401998371   -0.96125472530985   -0.73507242266850
H           2.11827460595754   -2.63617361556882   -2.28621877622824
N          -2.39000520088933    1.06456921585650    0.82078551241352
H          -3.32867938994304    1.22601786370571    1.16830941729996
H          -1.63003943664877    1.08011418328084    1.57930039043483
H          -2.30265641780169    0.16523406172824    0.31037160199810
