    26
        -50.45039946  Gyration_radius:  2.51251563507 Dipole_moment: 7.277
 S          -1.42224431486812   -0.09824370864179    1.82922223006950
O          -2.12546655867743   -0.90939958989938    0.80454681326144
O          -1.10347133007648   -0.81720066111521    3.01665260401889
O          -0.04171991245253    0.28647065575763    1.11055197517611
O          -2.05767947293912    1.20446865760213    1.97294764399460
H          -2.21985562071048    1.57593671724679    0.47577445847541
H           0.51479666104488   -0.52894688770471    1.08372659112059
O           1.53954356935777   -1.81858215110805    0.91541917649900
H           1.66709685499619   -2.11890640895698    1.81729196424442
O          -0.23057752028815    0.67444795428699   -2.10275266665192
H          -0.22521396487369    0.57364231417559   -3.05551036611856
O           1.74082593956506    1.70016984075841   -0.41349865132075
H           1.18865303728387    1.54530526986460    0.36534496231400
H           1.17628644857583    1.43034681278630   -1.15490347615607
O           3.49688420268649   -0.25118832721687    0.09253050019357
H           3.99420624695533   -0.41870729506054   -0.70904128174876
H           2.94821445355650    0.55170762930064   -0.08105558851329
H           2.35396964647877   -1.32039895705814    0.65096453060486
O          -0.44212801874307   -1.71927667138931   -1.08152394218195
H          -1.13168055534934   -1.57889184079835   -0.39618210125393
H          -0.25251322959364   -0.25471177867268   -1.72644649601668
H           0.33649075571629   -2.00399281861408   -0.58608002331834
N          -2.40047518943474    1.21693480397295   -0.52195059268799
H          -1.57227491256971    1.28301708064299   -1.14387366881757
H          -3.23671440055757    1.60502323229831   -0.94386037083933
H          -2.49495282507627    0.19097611753033   -0.21829423435978
