    26
        -50.45315592  Gyration_radius:  2.46424550099 Dipole_moment: 6.327
 S           1.50277774477736    1.35336497935838   -0.22146984837627
O           1.78454799315596    0.05302518549622   -0.85745711152816
O           1.28834613121499    2.41878873927102   -1.15022436576649
O           0.10786152471830    1.11349621523951    0.53753414190841
O           2.43964742309328    1.59323295545301    0.86796486266620
H           2.62544158991720    0.19328262114972    1.46744336246944
H          -0.57188341182119    1.28432972525479   -0.17738217561286
O          -1.49417459755972   -1.89088512990140   -0.16507931178535
H          -2.19337119458623   -1.21459695617860   -0.09607583577121
O          -1.26095882280150    1.57488970556112   -1.59150541209297
H          -0.54252301702534    2.19374204716769   -1.79263846025576
O          -3.23417111750534    0.24887509561391   -0.14634275372462
H          -2.68213090164936    0.87733374039677   -0.63687658739022
H          -4.01620042687057    0.10365879258992   -0.68181576527170
O          -0.10478905382989   -0.96571802751790    2.19830199163693
H          -0.12814004218329   -0.15797853099377    1.63969168987165
H          -0.67663123484769   -0.79295502381685    2.94817957419062
H          -0.98626853722223   -1.82360529771288    0.65172445395240
O          -0.32697162657638   -0.72684346958944   -2.34237943725452
H          -1.00057748282531    0.71869173851163   -2.04533092660994
H           0.55454141617631   -0.52766940456933   -1.97950189711556
H          -0.74577511347047   -1.31899183635459   -1.68585762718435
N           2.48197063166283   -0.87394299775346    1.38632051056226
H           1.63994070229140   -1.15386189423691    1.91631253573290
H           3.29958577742795   -1.42947125538946    1.61146960228619
H           2.23990562572826   -0.85019170709726    0.34499482083178
