    26
        -50.46788064  Gyration_radius:  2.39851644195 Dipole_moment: 5.645
 S           0.67408294047917    0.12965963374691    1.66948723795466
O           0.95787124610679    0.77799434113400    0.39386863605723
O           0.76036922506085    1.04181013499353    2.77774138351346
O          -0.65011373043429   -0.53138707220087    1.59492092293963
O           1.72386044886012   -1.00776878651650    1.86262319314313
H           1.72933434646297   -1.53025079783694    1.02518490685233
H          -1.45894815637677    0.50748612091696    0.84631998032170
O           1.77610323569670   -2.30683051117444   -0.46573152931236
H           2.64186261282277   -2.70600760707214   -0.56618289259592
O          -1.34520994066181   -0.06552846540236   -2.09223228349669
H          -1.99917031416282   -0.29276060142305   -2.75447387814416
O          -0.15716260824785    3.07351160308452    1.34749484025191
H           0.59716461072434    3.16850398980689    0.75852472776702
H           0.15994975634900    2.43890980132743    2.03199629709755
O           1.50696054595706   -0.19067224465925   -1.96566116057630
H           1.73627007608569   -1.54665799529959   -1.11696990458708
H           0.62122347500698   -0.13411779218101   -2.34774381146720
H           1.42688398938707    0.31190073517956   -1.12485891213607
O          -1.00626204803964   -2.10497942967883   -0.49622921172129
H          -1.22653047922060   -0.88329774298695   -1.52660622762015
H          -0.13634773637697   -2.50992759543290   -0.60519354231756
H          -0.94642124092445   -1.62985506266914    0.36180328761988
N          -1.80080437987584    1.31863952274089    0.22848114560388
H          -1.19108972866391    2.13129315578485    0.54151495476608
H          -2.78618960266600    1.51307661845569    0.37344772650022
H          -1.60768656347640    1.02725602725064   -0.75152585637251
