    26
        -50.45039945  Gyration_radius:  2.5126493916 Dipole_moment: 7.275
 S          -1.25130455290317    0.64547313418109    1.84289641134307
O          -2.20848238656809   -0.15961411677233    1.04423453741891
O          -1.01790491068585    0.13483644334321    3.15179837377658
O           0.11814206889063    0.51298205200612    1.01993408405263
O          -1.54397818344386    2.06612619156282    1.70929890418738
H          -1.73498616303435    2.14404408207750    0.17326654854230
H           0.46065184265830   -0.40251468947390    1.16076823762856
O           1.13187237719358   -1.91340201834953    1.25509311503232
H           1.25749459393628   -2.04190857682307    2.19717154139566
O          -0.23358353786681    0.25601570991974   -2.19289059912227
H          -0.32978053596910   -0.03996155324681   -3.09903527019810
O           2.05620415938638    1.08500438103180   -0.82850451914009
H           1.38499911371031    0.81636579866915   -1.47545351734997
H           1.54846078209253    1.23980743178873   -0.01999815803977
O           3.33252558543022   -1.09309439600970    0.05131569251296
H           3.70912301875318   -1.54317840084121   -0.70598716917779
H           2.97839603253387   -0.23315035561986   -0.28175693582586
H           2.01712168370906   -1.70126314993798    0.86425738656823
O          -0.92525248943205   -1.74044932856786   -0.65896750951217
H          -0.19909160237863   -2.10050789369759   -0.13374519767582
H          -1.50345393741740   -1.29197097846150   -0.00362533185085
H          -0.44547646939490   -0.53825157745425   -1.61867495838557
N          -2.07652511005285    1.64189182412623   -0.71489350684464
H          -1.30968068340787    1.36714137399691   -1.35796805513786
H          -2.82730204414807    2.13040597500662   -1.18987730400656
H          -2.38818866156421    0.75917262753335   -0.18865679019336
