    26
        -50.45315583  Gyration_radius:  2.46421567169 Dipole_moment: 6.331
 S           0.61613701840182   -1.77339744490140    0.78410049489068
O          -0.49317922573726   -1.91128569121089   -0.17769013234687
O           1.86082009632144   -2.29548359130408    0.31289584952222
O           0.80475867816792   -0.18457766028859    0.92499424843309
O           0.18119471433423   -2.17807299660976    2.11419352542398
H          -1.26740126277248   -1.67382348143439    2.16278450123185
H           1.40766389619395    0.04142069200199    0.15838232101175
O           2.28499345132504   -0.05762791164268   -1.17567883355710
H           2.57782690127245   -0.93783292557815   -0.89436642881467
O          -1.00133413098500    1.75427909218077   -1.32584767837311
H          -0.13356186212183    2.18690238591479   -1.22240313760224
O           1.59545259286350    2.63381365867737   -1.02660003964119
H           2.03484440312486    1.76958893161465   -1.04569971198947
H           1.92028865517596    3.11704977385603   -1.78842133919656
O          -1.32596782047234    1.31190382180050    1.51467923336720
H          -0.47449027144715    0.85882785514412    1.32858757418546
H          -1.11437830280911    2.07525949500444    2.05476581551733
H          -1.34742801530162    1.64920164330032   -0.43205651422985
O           0.05346425786795   -0.51466527149739   -2.41921047707434
H          -0.44853712820931    0.29642860822385   -2.20180834285382
H           1.53257685114103   -0.22760890022339   -1.81728486717008
H          -0.22425527300906   -1.17129513762739   -1.75586836153732
N          -2.12611543745816   -1.27716292737755    1.64203525346290
H          -3.00670279963879   -1.71989760553115    1.87946986572390
H          -1.75878515359017   -1.52364582883957    0.66834660937320
H          -2.14788480273683   -0.24829857363629    1.73770058227043
