    26
        -50.45315587  Gyration_radius:  2.46411468458 Dipole_moment: 6.335
 S          -0.76971087342742   -1.11569241974634    1.51633461831719
O          -0.37403548496763   -1.91554785216283    0.34241533677425
O           0.06058279234092   -1.31726464331226    2.66256449669870
O          -0.54063575991396    0.40112515512510    1.04023758547854
O          -2.21124838794104   -1.19062512504497    1.71285668661514
H          -2.74649106454638   -1.20956408925136    0.27569666784728
H           0.43031284533553    0.55441819006861    1.22966553022097
O           1.96405770196298    0.32736515928150    1.62571480398202
H           1.67230766801224   -0.26539232514954    2.33506908697406
O           1.09976212345792    0.79900074128616   -1.99693355126142
H           1.43016402051858    1.50339130018030   -1.40895746387971
O           2.02543845864666    2.53578837564093   -0.06532019435920
H           2.92513230195983    2.82830447330610   -0.22116392394152
H           2.06802412873619    1.90808041923128    0.67261788210325
O          -1.66302873080087    1.21000216150008   -1.24292852067307
H           0.13891970892601    0.87804871982983   -1.98295516370493
H          -1.23359354096293    1.03102520053151   -0.37775184837078
H          -1.93089044106827    2.13040605371439   -1.22723892388418
O           2.10595776981412   -1.21726084456997   -0.45490850469194
H           1.28253770347582   -1.67802699761112   -0.21410800342548
H           1.85200496849623   -0.59357533347773   -1.16458190233383
H           2.20929307624502   -0.27930109506637    0.86519867337535
N          -2.55377441248502   -1.31057413293391   -0.78216606835457
H          -3.19890130703851   -1.91884299466181   -1.27374565990595
H          -1.57475313760832   -1.72062932486476   -0.65352154432691
H          -2.46743215672293   -0.37465876374111   -1.21209009575813
