    26
        -50.45039953  Gyration_radius:  2.51252870061 Dipole_moment: 7.268
 S          -0.26087638207172   -0.13618984620900    2.29917755416430
O          -1.45886163681784   -0.83998580823728    1.77796025752918
O           0.57342539013597   -0.94649151866716    3.12142948648383
O           0.56512781968798    0.21807292115229    0.97154774092453
O          -0.62014708406431    1.18731709008623    2.78994790420984
H          -1.50997990666780    1.66240304084697    1.61202092181982
H           0.95969850844327   -0.62279755391794    0.63621605703956
O           1.63940833088332   -1.95420753945463   -0.07610726415902
H           2.19285815124082   -2.31718819120026    0.61798347483798
O          -1.24062505312251    0.81742703993354   -1.64909414154078
H          -1.74094348121356    0.77719469260534   -2.46518908807818
O           1.39778975051312    1.62337514793708   -1.22696908664320
H           0.50924172125112    1.43125263972115   -1.56593328154146
H           1.32441316802522    1.45282246506457   -0.27783050244579
O           3.00066501507386   -0.44842072235186   -1.76300123103453
H           2.23410110576463   -1.48634786695684   -0.71542972980588
H           2.99474257179992   -0.59258804792852   -2.71015287231867
H           2.50662460121744    0.39212901628622   -1.60456418372755
O          -1.07856104901325   -1.62127680336311   -0.73042230444932
H          -1.13747799369247   -0.13120193878679   -1.34092884558832
H          -0.18121408926988   -1.97841249841801   -0.72501522025407
H          -1.29530917257416   -1.48671506584790    0.21812823908754
N          -2.21358188858470    1.37907610824963    0.84918814371629
H          -2.21874116236802    0.34257218566231    1.13072286753083
H          -1.82950810813281    1.43847445504508   -0.11307048671752
H          -3.11226917644074    1.83970658874683    0.93938560095191
