    26
        -50.45007677  Gyration_radius:  2.50583714899 Dipole_moment: 4.970
 S           0.17121281894406    1.18914835606590    2.13614265227931
O           1.50822550196573    0.81829591817414    1.72657478463458
O           0.05082371148801    2.23489312533877    3.07977482870890
O          -0.62740930995724    1.50880289149088    0.83378747406006
O          -0.57151859759328   -0.05637780171154    2.66353532969483
H          -0.49200252207877   -0.81169985025763    2.01048240787516
H           0.06994267661837    1.76619338246829    0.13437601745388
O          -0.28051349257812   -2.04544749533850    1.02814288138377
H          -0.33443994157383   -2.86277400522393    1.52678744236942
O           1.39697021493228   -0.39699962003535   -1.98215721522548
H           1.65376172268957   -0.54123689255915   -2.89337290538218
O           1.31760046550692    1.96258592588569   -0.71345049551849
H           1.91230475426843    1.79570791924124    0.03083442406094
H           1.37104218544509    1.16170073469503   -1.28259464517414
O           2.14924248607932   -1.44550375504921    0.44976353319578
H           0.69456359923659   -1.91782110931651    0.78888920059884
H           2.08788069244445   -1.14384559635754   -0.47369439555567
H           2.13152582399932   -0.63482167188946    0.99342335186189
O          -0.98560717988477   -1.34784655992571   -1.60870145220482
H          -1.63619798262975   -0.60754686765315   -1.54300301646009
H           0.46575813747563   -0.76417893064888   -1.88986108432125
H          -0.91998797075591   -1.71156142034683   -0.71424527671314
N          -2.65874674318922    0.73819186885419   -1.17141162371414
H          -2.70190738225310    1.46282049940232   -1.87683784613438
H          -2.16583600993860    1.11973404183275   -0.36907431278417
H          -3.60668767866154    0.52958690286371   -0.88411005899264
