    26
        -50.44707819  Gyration_radius:  2.5105991831 Dipole_moment: 4.737
 S          -0.42258983385961    2.26036661862034    0.81293007676043
O           0.18659072640862    2.18064223598790   -0.49167236839535
O          -0.98028337892199    3.49979516355350    1.20054540485099
O          -1.48706965309278    1.11616039268895    0.88800815599471
O           0.60614666576223    1.81422062693750    1.88385205503387
H           0.82858810084364    0.85628172449501    1.73757948392463
H          -1.50781860350767    0.69342263376219   -0.03929687746999
O          -1.31683769217139    0.16375901278277   -1.45593039014538
H          -0.94122048784133    0.98862883121391   -1.78485880045323
O           1.02278054284865   -0.74645649918198    1.63400544244440
H           1.59558472203921   -1.05755813340253    2.33723714101244
O          -1.74181744860191   -2.52075018833654   -0.39003262871015
H          -2.21890343506938   -1.87392917671224   -0.91833159396363
H          -0.83781606197467   -2.52378484068089   -0.73075069173767
O          -1.41831930072136   -1.44043023976495    2.05974751397297
H          -1.83875039042261   -0.57946934903160    1.94494585759233
H          -1.64020490501783   -1.96158452137081    1.25629922558099
H           0.09033058563720   -1.06493997940211    1.86474158922593
O           0.79856805857196   -1.35342840028473   -1.05795987497815
H           1.43073351875594   -0.73284869302991   -1.50042500881444
H           0.98445604560802   -1.24487287980934   -0.11118708701839
H          -0.53515047712132   -0.45102941120146   -1.36541920858046
N           2.24868150357166    0.73118823517692   -1.91465853211301
H           1.62973925191196    1.38995425074001   -1.44148467294991
H           2.28893855942484    0.99874384319599   -2.89041277892441
H           3.17564337692816    0.85791873305160   -1.52747142211405
