    26
        -50.45807521  Gyration_radius:  2.42127151043 Dipole_moment: 7.653
 S           1.70535207661962    1.28776313641532    0.53493358203243
O           2.09743776534856    0.43920341606520   -0.58116462023536
O           2.70569876020021    2.16154205680341    1.04067109137332
O           0.46584765602902    2.15049904929277    0.02750937546683
O           1.08024994512064    0.45722368906448    1.60875907464735
H           0.65392296615831   -1.10080812315812    1.49192210375539
H           0.45854613106562    2.03793659716184   -0.96204537223951
O           0.26057242741575   -2.00968327391962    1.42683180557901
H           0.61117530368134   -2.50575633125633    2.16722668474215
O          -1.15603266011758   -0.73890347429955   -1.99924022945607
H          -1.53401928692765   -1.20773011890076   -2.74428909382871
O           0.50771954642555    1.44451426143789   -2.44285832518280
H           1.32070666033378    0.99746057935281   -2.14942820794482
H          -0.18547746674403    0.76025538351900   -2.42917800298285
O          -2.12921456706918   -1.01491698295965    0.50867055901860
H          -1.91319487797951   -0.88481918879457   -0.43934736274792
H          -1.41130431169141   -1.57504800293916    0.85588867246333
H          -1.81623292206439    0.31654338636578    1.22601181304224
O           1.02130785749258   -1.88603496165385   -1.21039910889221
H           1.56023927104577   -1.08425041803605   -1.02795270633266
H           0.80308219357993   -2.23186949371735   -0.33097355467104
H          -0.31188887335613   -1.23231509015998   -1.75467603342143
N          -1.35659759715225    1.16692803502430    1.70451940225708
H          -0.29512020049687    0.90207947040292    1.78148039554491
H          -1.76879309981784    1.37078361907155    2.60848354819766
H          -1.37398269710135    1.97940277981468    1.08864448981693
