    26
        -50.44551806  Gyration_radius:  2.5191806575 Dipole_moment: 3.366
 S          -1.00673104007346   -1.08032258477610    1.46542616495054
O           0.40027916154276   -1.32602894404340    1.36079968252831
O          -1.77742148034155   -1.83278874927545    2.38178424983828
O          -1.23401770745654    0.43337624725222    1.76237815276187
O          -1.63628137047108   -1.24698425621834    0.04301935831673
H          -0.95684788365728   -1.03155800248555   -0.67521230730863
H          -0.52726383497562    0.96831952335599    1.29991686370607
O          -0.03416446221456   -0.66796089246806   -1.86110821732640
H           0.17264331476554   -1.45171991680421   -2.37200910576160
O           0.38669126062843    1.94086583746976    0.43059049619457
H           0.41876381071428    2.82763895371026    0.79378491322524
O          -3.36524332579105    0.90060012767130   -0.11598429748280
H          -3.03761821793300   -0.01059853419342   -0.09509289422316
H          -3.32512374412141    1.20998857674027    0.79254027570043
O           2.17372309486110    0.33790010847070   -1.03889235317035
H           2.62949044728270   -0.34468877522078   -0.48432826833601
H           0.85881981681186   -0.28405692089850   -1.55703022609800
H           1.81248762558823    0.98308363344787   -0.41557942604226
O          -1.26694158316939    1.84825925702559   -1.55014633420926
H          -0.96880155284688    1.05119937750529   -2.00801879770169
H          -2.12518917582581    1.61800806507040   -1.13609754467320
H          -0.20870132033961    1.98764644805444   -0.38263820223239
N           3.15832081576049   -1.52859135482007    0.63084056431240
H           3.79521100671778   -1.24543754759552    1.36486990531668
H           3.43455373481280   -2.45285138282366    0.32449919767098
H           2.22936260973010   -1.60329830414858    1.04168815004375
