    26
        -50.44406842  Gyration_radius:  2.49720777692 Dipole_moment: 8.346
 S           2.32602035255916   -0.98682587478759   -0.16207579928066
O           1.78613912355581   -0.52126584526587   -1.41390691351011
O           3.71245390715263   -0.78009631128048    0.05547858985597
O           1.50177613989185   -0.26484835669522    0.98185406111819
O           1.93556959342920   -2.44225599481871    0.07348351515710
H           0.93527551447971   -2.47518464595611   -0.15915583305152
H           1.28514965940156    0.66094099280267    0.70274940954065
O           0.85665771006160    2.16495964852679    0.21620312344525
H           1.62759454474920    2.73243340882387    0.26530859553221
O          -1.76450325448223    0.06223030922222   -1.37409941577217
H          -2.63178690504625   -0.30382242715290   -1.55329606356778
O          -0.53884381250363   -2.28221242170157   -0.39940984576039
H          -0.86200417663549   -1.97930513978782    0.49029919537478
H          -0.67285858132175   -1.52328845774812   -0.98840018982599
O           0.39584805995782    1.56202211172199   -2.23885489272860
H           1.03046850630235    0.82036762922181   -2.19762663770424
H          -0.46853039187775    1.12406543706390   -2.20753418677836
H           0.67522691041598    2.01305289007292   -0.77089450064390
O          -1.75551733134209    1.63048587421107    0.87662922669466
H          -1.82275439682618    0.53399010271931   -0.51973203442760
H          -0.80961313065736    1.85050980847788    0.81110132314013
H          -2.23175688654194    2.45640477761035    0.77154786038985
N          -1.15614490060191   -1.16933709237633    1.96392953815935
H          -1.65339405734429   -0.29166428761714    1.86399304452424
H          -0.18195858270981   -0.94199283260344    2.13521716699116
H          -1.51851361406729   -1.64936331267088    2.77719164311492
