    26
        -50.44406850  Gyration_radius:  2.49758298677 Dipole_moment: 8.361
 S          -2.42008807911088    0.13476169840947    0.73533020684729
O          -2.18129722682722   -0.76200074339980   -0.36650306394225
O          -3.38720867987434   -0.26728871305442    1.69203132826256
O          -1.02526585678422    0.34702964853187    1.45539233361573
O          -2.69815536524258    1.54330644853545    0.22036160640628
H          -1.97141774633748    1.70113014675259   -0.48863613461569
H          -0.51047191116923   -0.49951769426890    1.44019560499008
O           0.37890838227018   -1.87178911779183    1.34942883840965
H           0.02903851251661   -2.50484208441842    1.97841582243623
O           1.01505846087195   -0.31907010577265   -1.96934625209805
H           1.49734859789069    0.10133220607508   -2.68273516082859
O          -0.75396295365560    1.79217703358659   -1.37054351392362
H          -0.05142073489728    2.08922243555785   -0.73336499944954
H          -0.48512316550153    0.90144950286332   -1.64489564096399
O           2.49005498441614   -0.43283507856488    0.34054084016160
H           3.23022863141379   -1.04118488194220    0.29500535413404
H           1.56814826187939   -0.24603653385838   -1.16641235731958
H           1.79576948077325   -0.88496665665409    0.85138210100652
O          -0.34569769119029   -2.53717174558444   -1.02447785919533
H           0.16815404168989   -1.94455356776815   -1.59429722367201
H           0.12641809102080   -2.21427427512912    0.42786384388500
H          -1.19770727530933   -2.07127196062600   -0.91719605968136
N           1.05889019139777    2.26691843262629    0.55112160436174
H           1.84168422144908    1.62381104762457    0.51525239584161
H           0.42386075041118    1.92351279747636    1.26445753263748
H           1.40425409788251    3.17215175074841    0.84162886284985
