    26
        -50.44585779  Gyration_radius:  2.49335137527 Dipole_moment: 5.773
 S           2.02986620309579   -0.90711938085387    1.07864932176542
O           1.23071524443780   -0.07021058959706    1.93835822730013
O           2.29277282484388   -2.22250668606090    1.53611662376025
O           1.29923017578012   -0.97799926952987   -0.31061013683995
O           3.31190364375304   -0.16295884293765    0.68391500449437
H           2.99541085596501    0.77173397726948    0.50894788240724
H           0.42462525082537   -1.48598362702484   -0.18261523325838
O          -1.24105909407562    2.00548937549417    0.47385339720060
H          -1.77163902675057    2.76500670352099    0.23319168944165
O          -0.90480531445337   -2.13356408261004    0.20329727146097
H          -0.68162579622473   -2.91407427111583    0.71547775751771
O           2.00786212200922    2.03416995176594    0.37933006333107
H           1.48098300310416    2.06440554386388   -0.43015526392795
H           1.41369016626367    1.73706375452157    1.08481009321773
O           0.12409576118119    1.11881411975621   -1.66253039754161
H          -0.75313683760064    1.73058926049745   -0.33402091678162
H           0.69547549357745    0.39706932195402   -1.36130446512834
H          -0.65302181809969    0.64627299601420   -2.04526820518894
O          -1.44688719737016   -0.29179547937313    1.90786010723385
H          -0.52690079132660   -0.22008907019604    2.21715563032002
H          -1.59188706337136    0.55241843304013    1.44194457938186
H          -1.23964878152698   -1.44501107673244    0.86873425554101
N          -1.94291475423875   -0.54037416910035   -2.23383951474241
H          -2.88183832750199   -0.20936617212033   -2.04945414963766
H          -1.72079861434506   -1.23674518969963   -1.52874605434212
H          -1.95046733795321   -1.00523557072075   -3.13309754697962
