    26
        -50.44585787  Gyration_radius:  2.49366745387 Dipole_moment: 5.777
 S           1.26392810860831    0.98857679986293    1.88005596510383
O           0.89460052855768    1.93593089907903    0.85811588389176
O           0.83247939272290    1.27482396950653    3.19934057325813
O           0.69899010892710   -0.41070769269410    1.44195511436594
O           2.77210173565358    0.71715768790433    1.80900957320108
H           2.95298683026159    0.65936475708732    0.82501579514107
H          -0.31897498964470   -0.36606291750210    1.47723258526208
O          -1.82181455856403   -0.09184777601700    1.44269783478527
H          -2.03656020197052    0.31852474787061    2.28342697883988
O          -0.17486853777564    0.70672294899293   -2.29481341293058
H          -0.27073061155120    0.55225277890097   -3.23462677937775
O           2.69751439871971    0.67814367667331   -0.76288273762851
H           1.98092450306863    1.32865143918169   -0.71515115721929
H           2.31327018122347   -0.12893045270576   -1.12988132549886
O           0.77065775714815   -1.49986806342663   -1.09046852885061
H          -0.10448350787937   -1.95553279242335   -1.09260149120462
H           0.18737055054686   -0.11999528345687   -1.90543213075007
H           0.90547842841887   -1.28411803574766   -0.15592591811735
O          -1.55477423830919    1.82704131412785   -0.24181582817819
H          -0.73881309996680    2.16007634658941    0.17104845529208
H          -1.24419656944596    1.47197116436856   -1.09532616834716
H          -1.84026265839062    0.65118508988366    0.75232990449979
N          -1.78415927946201   -2.32056726544780   -0.69900589804589
H          -2.46556804308229   -2.11304370748977   -1.41860800842812
H          -1.97492517190883   -1.70734746931396    0.08776122639799
H          -1.94017104591102   -3.27240216380769   -0.39145051544144
