    26
        -50.44805103  Gyration_radius:  2.38347155712 Dipole_moment: 4.545
 S          -0.46283545309956    0.46245487538246    1.37343042555610
O           0.79039906254443    1.06897235984562    1.83322716570443
O          -1.58133616163562    0.63160943029788    2.24285382794410
O          -0.81169865430035    1.21130885232332    0.02039468691453
O          -0.20630747357131   -0.93720827367947    0.99252300585066
H           1.28360389358554   -1.19689776030466    1.13142043929922
H          -0.42930528678555    0.71364311939383   -0.72624004210907
O           2.29005423894644   -1.08137005877350    1.17636846820991
H           2.36893663878005   -0.35044649488975    1.80566488949443
O           0.15300978275685   -0.27511299475773   -2.00960636326648
H          -0.09792880009287   -0.03376862413635   -2.90227518339841
O           2.05518116204627    2.26506185889865   -0.02463471335591
H           1.48054609006992    1.90129355710142    0.71614236848120
H           2.72431961441581    2.80883875543227    0.39451817572080
O           2.53589538420734    0.00548876339480   -1.02797988152576
H           1.67099568790089   -0.20309697530815   -1.49407283547164
H           2.43563668085968    0.98873792937206   -0.71604927019299
H           2.50945239267374   -0.55802606980015   -0.06957053443173
O          -1.46923240372877   -1.99784837389689   -1.09313484771894
H          -0.47925823476551   -1.03189492516343   -1.71778718805974
H          -0.98178114700188   -2.06289538479776   -0.25572744327838
H          -2.25876037299494   -1.45872231774265   -0.81918820135565
N          -3.24657284950839   -0.39758243204751    0.11690287073548
H          -2.66588080186469   -0.11745971367046    0.90831533539058
H          -4.08908041248784   -0.81366750455185    0.49661909258447
H          -3.51805256695690    0.45858840207725   -0.35211423772090
