    26
        -50.45812151  Gyration_radius:  2.42454409592 Dipole_moment: 3.423
 S           1.77408103863871    0.31087425050267    0.07683221307698
O           0.81816948368740    1.09729399158318   -0.84756704610446
O           2.57483830146907    1.26650570194199    0.76576109759882
O           0.83786374799075   -0.43014373206822    1.05179868825339
O           2.45104507900853   -0.71032930589479   -0.67660911396133
H           1.47381433438069   -1.91683739287488   -1.12923540925021
H           0.08692129187834    0.22655166404640    1.42365582768142
O           0.79855152598804   -2.56135383103863   -1.46328819268219
H           1.27658641339619   -3.18072988497375   -2.01717689225553
O          -2.42535535512664   -0.46380013817861   -0.09025552214565
H          -3.36102263256015   -0.65903384016965   -0.02530967503149
O          -0.99186283946700    1.09337800421303    1.72148493108617
H          -0.57176330368517    1.97597817389360    1.47921062219961
H          -1.62725093120474    0.84354101967963    1.02936734409952
O          -0.69766435816507   -0.42352507623665   -2.18607714280416
H           0.24689339669392    0.49900991637716   -1.45244218591844
H          -0.26577371721432   -1.29322651265444   -2.08037048246060
H          -1.45696655176628   -0.41100284819271   -1.57206722529814
O          -0.94832370498034   -2.51554848953146    0.67474667896586
H          -1.94797557378600   -1.26399009846557    0.25788291139267
H          -0.43390368588618   -2.77018762136316   -0.10877181592896
H          -0.31694620868230   -2.03670263004213    1.22666456228856
N           0.46495160487351    3.17788318376115    1.07301416105509
H           1.33306973859615    2.64307144957452    1.03097680169084
H           0.60889898699347    3.96305721883491    1.69575491201270
H           0.29912391899574    3.53926683735808    0.14201995229011
