    26
        -50.44585780  Gyration_radius:  2.49339755317 Dipole_moment: 5.776
 S          -1.99163789756051   -0.18532654385572    1.45119293775891
O          -0.75960383902194    0.03063446392566    2.16786859724846
O          -3.03087606840184    0.75196783073097    1.67491977885592
O          -1.63956055823127   -0.21356902446145   -0.07983337401480
O          -2.46013102081067   -1.63137543062482    1.65815354453813
H          -1.61276057640324   -2.16294602742984    1.59629456024153
H          -1.33378482754807    0.72028525571124   -0.35141082433994
O           2.30957185666776   -0.48319575984244    0.46986488106094
H           3.18823153759953   -0.78513868766699    0.23953006891773
O          -0.76614542734505    2.12367753443255   -0.56106240231065
H          -1.40856177202759    2.72953719914566   -0.18477498426023
O          -0.04962533699334   -2.50251555141088    1.43145310476266
H           0.27765063327941   -2.50823492007900    0.52221375885287
H           0.24989400881025   -1.67049820919575    1.82771620128988
O           1.04030510472808    1.79322934771960    1.23309403787477
H           1.67333466923115    1.11265066473754    0.93820489884678
H           0.00830563869937    2.09058132350058    0.09326785398725
H           0.44757438881902    1.30258707231199    1.82904193620042
O           0.50850623177904   -1.48386433630493   -1.25308665066038
H           0.71816621081740   -0.82505590928448   -1.95710272639358
H           1.69007024716870   -0.88710084636670   -0.17775386731448
H          -0.36825619551614   -1.20891105987951   -0.94678379306727
N           0.83622055479356    0.71859334591900   -2.80027796433763
H           1.76274687150370    1.12238648145892   -2.86089308107237
H           0.27025607750988    1.33790587577196   -2.22794194966238
H           0.44010949846929    0.71369589104114   -3.73189455299401
