    26
        -50.45488632  Gyration_radius:  2.4421572871 Dipole_moment: 6.274
 S           0.89902845459465    0.10765676831915   -2.07776120025795
O          -0.14481408729410   -0.90566098439462   -1.80267810703793
O           1.36825627568596    0.12223072467043   -3.41703396636020
O           0.41145415964053    1.42591148139976   -1.60393258599285
O           2.10932031913564   -0.24715732723808   -1.13867436033308
H           1.80886644982846   -0.69317952843659   -0.31495563083481
H          -1.08030428888412    1.34638439150782   -1.25472693793734
O          -2.03843351114820    0.01527612621864    1.45506768612073
H          -2.63354777684652    0.15847750053942    2.19153405062433
O           1.51817336000712   -1.57019501947906    1.09851870947790
H           2.14753205914854   -2.29090692746425    1.14798312926217
O           1.67607859363339    2.19839786374986    0.57171391467011
H           2.57882581803076    1.89818812700567    0.44844328198348
H           1.22278624194987    2.01029260866724   -0.27870622082206
O          -0.85628299015512   -2.31434604019467    0.35288668460465
H          -1.42454969285402   -1.65220445236158    0.77542235226657
H          -0.65287781583666   -1.96896346797334   -0.53912278267593
H           0.62857083471278   -1.97539939017938    0.88885750806536
O           0.32820452166480    0.63743133687673    2.26740863512949
H           0.77163841743903    1.33684387156756    1.73584819789239
H          -1.12505173376991    0.29198514865703    1.78434018272628
H           0.85474614297518   -0.15909925294221    2.10747144969445
N          -1.95258285043653    0.73471143786318   -1.12497685693289
H          -1.50358655801496   -0.14694792365264   -1.51428408004908
H          -2.75994545240620    1.05391348082719   -1.64693596056505
H          -2.15150490080296    0.58635944644750   -0.11170708271863
