    26
        -50.45488626  Gyration_radius:  2.44218376533 Dipole_moment: 6.275
 S          -1.53105280870195    1.65216204967435    0.25284053632475
O          -1.95197950826230    0.37769661725024   -0.37227255530455
O          -2.57061037684987    2.60640727872390    0.40372678569885
O          -0.81872556057577    1.34357165414339    1.51666693089397
O          -0.43873889130397    2.26433706851956   -0.69833184922938
H           0.05047768163576    1.56333135628437   -1.18515861999771
H          -0.99919333883592   -0.13610387679733    1.88111486776469
O           0.66359846842704   -2.38309339770377    0.39108209880460
H           1.18094562437783   -3.17075097293043    0.56142325199793
O           0.92205867532751    0.53310787929467   -2.20024295378492
H           0.92010317596504    0.89992459211897   -3.08534087527751
O           1.76861848765904    1.77649214368604    1.29807865693168
H           0.80831222280639    1.67059407413264    1.47318813076912
H           1.83939248508088    2.55382370052118    0.74044662099353
O           2.33195015895427   -0.46488199939816   -0.03889582020260
H           2.08622027874127   -0.12345360067542   -0.91087248573892
H           2.23240705573032    0.30602201276363    0.56458949546348
H           1.33381781438427   -1.64041793714497    0.25503135678298
O          -0.73041217751208   -1.44753685618836   -1.89357852220456
H          -1.34423283991596   -0.82924179771378   -1.44948395991903
H           0.32240662637187   -0.26672297279906   -2.21610551441980
H          -0.30943134324372   -1.96273466876455   -1.18840646986035
N          -1.36102422663200   -1.10502564596559    1.59490962732821
H          -0.57222531596407   -1.72148763665365    1.30160718169911
H          -1.86319039534714   -0.76023582378120    0.72326612428004
H          -1.96949197231560   -1.53578326059156    2.28071797020735
