    26
        -50.45488628  Gyration_radius:  2.44213870961 Dipole_moment: 6.275
 S          -1.33112154641636    0.83647677677222   -1.63252564390093
O          -0.12021193123917    0.07658129154351   -2.01779603110293
O          -2.11977324852315    1.28234602625725   -2.72491413473146
O          -2.08955581996263    0.03998619228066   -0.63734165856863
O          -0.82141367660893    2.10055595512186   -0.84839488739300
H           0.03132997610162    1.92275349722153   -0.39126339965107
H          -1.52580495968558   -1.38475906614008   -0.55574098996218
O           1.53975444755438    1.86315749073015    0.36536942331533
H           2.03192037643704    2.65143626031118    0.13223255334347
O           1.16026047255474   -1.97320134143886    1.01613847027280
H           1.54084503464961   -2.58214841940480    1.64969617399484
O          -1.91167712508335    1.08300956481705    1.77305591953141
H          -1.91678427808537    2.03144079902082    1.62920928114659
H          -2.08543786049675    0.68693735147133    0.89159564696207
O           2.29789596370230   -0.25575264282902   -0.93187690143283
H           2.07962072597664   -0.96860668430514   -0.31211421439041
H           1.51557965673662   -0.14752739820730   -1.50861475943964
H           1.96457403462315    1.10074899910215   -0.12233134495071
O           0.53868168138193    0.16865215117304    2.30996335692822
H           0.89762626652451   -1.15561621750170    1.54701718338229
H           1.01093487535814    0.87522651600602    1.84625158459595
H          -0.40970730939641    0.42360721341626    2.24693856731226
N          -0.76088622125422   -2.07793840188355   -0.84922392681275
H          -1.11698725305244   -2.94110698800489   -1.24202670163846
H          -0.08295464573538   -2.23017414195378   -0.07106305636462
H          -0.31670764605949   -1.42608480357830   -1.56224051044147
