    26
        -50.45488632  Gyration_radius:  2.44201274893 Dipole_moment: 6.278
 S           2.09136175681780   -0.73808725527539    0.46377902858684
O           1.18245764563673   -1.61180561047630   -0.31214550739251
O           3.39103076373469   -1.27075503238612    0.66663871782313
O           2.09095856252251    0.60969411411817   -0.15577079183176
O           1.41608193286696   -0.54581365051407    1.87089582145524
H           0.43620647832916   -0.60982257929012    1.81332160094969
H           1.38786040424224    0.56668548288515   -1.51683009190315
O          -1.77161466479431    0.48252841380673   -1.70256534583084
H          -2.50523288630545    0.88587506479139   -2.16759277747419
O          -1.23625860749300   -0.80067313636350    1.95195142496620
H          -1.42002056207872   -1.37227035499794    2.69859186524101
O           0.80218927254907    2.35615178343519    1.33405947547028
H           1.00828418853647    2.10507720369621    2.23671148048378
H           1.36274751977635    1.77930372835679    0.77100652395212
O          -1.65449660039928    1.58973819693116    0.62292320051091
H          -0.79356846327162    2.01979674654408    0.82858868880078
H          -1.72525470655916    0.94939493146226   -0.80858153947452
H          -1.71041665923720    0.84983089752009    1.24476071309054
O          -1.46198793433202   -1.98884775166006   -0.34693795999416
H          -1.43369078921989   -1.32863203980056    1.12625965837434
H          -1.70329729559812   -1.25800504844689   -0.93643182135104
H          -0.48660526039341   -2.05254684881777   -0.37766244544561
N           0.81207722979506    0.00476710313735   -2.22780070128142
H           0.90563696207260   -0.91890614446525   -1.71063577673818
H           1.20443187772538   -0.00096753396594   -3.16174536067538
H          -0.18888014492363    0.29828934977541   -2.20478809031221
