    26
        -50.45488631  Gyration_radius:  2.44192334227 Dipole_moment: 6.280
 S          -0.88093106575090    1.90014551299714   -0.86392835272330
O          -0.83691153846448    0.68588638206472   -1.70955759521050
O          -1.48784678376175    3.02579095201832   -1.47923534421501
O          -1.48184154194960    1.54103947934572    0.44393371888039
O           0.61520078506703    2.26420173854694   -0.54462618767110
H           1.18856360826380    1.46496272585219   -0.53980671422632
H          -2.09384766939252    0.13795707137154    0.37789393994659
O          -0.25670980309370   -2.43662647770191    0.51813844438862
H          -0.19483230800469   -3.28974689544268    0.94875884535064
O           2.35800141434022    0.24781851323474   -0.59876670179668
H           3.10297667045907    0.56095859202838   -1.11346313124007
O           0.32327518281903    1.51728423297442    2.36001203646846
H           0.91736144203569    2.23869169841329    2.14344904840557
H          -0.41241052664807    1.58534633061167    1.71339512567185
O           1.37438879753418   -0.85713834739737    1.73953645788744
H           0.36583673121562   -1.82731238325599    1.02862082574788
H           1.95785348335730   -0.52682051300352    1.04115932186161
H           0.95770612735898   -0.04861749727390    2.11534218752491
O           0.82168640731358   -1.40038637278826   -1.89112009510493
H           0.19415798187500   -0.66291246641038   -2.02816434095582
H           1.88788125639655   -0.43706148857511   -1.15514058950530
H           0.45002999027566   -1.94192969459055   -1.17805693955344
N          -2.23558779790816   -0.76969198883305   -0.17797694521119
H          -3.20472751609860   -1.05199516527780   -0.26362468166531
H          -1.61845326585150   -1.52642148891665    0.18963434770895
H          -1.81082006138742   -0.39342244999275   -1.07640668076223
