    26
        -50.45488634  Gyration_radius:  2.44194068162 Dipole_moment: 6.278
 S           2.18146319023389   -0.25508174487890   -0.55630131607146
O           1.42651122992845    0.88059411134694   -1.13239552459714
O           3.54912927077426   -0.30530930952464   -0.93174645048560
O           1.96668218569130   -0.26647769254620    0.91139611211618
O           1.48018674398456   -1.55899192735015   -1.08630737071292
H           0.52361730947158   -1.40988999804950   -1.26030541802921
H           1.28300374309922    1.03077010388612    1.35688971687789
O          -1.09670681634310   -1.33461926047288   -1.73099510447825
H          -1.18806793274280   -1.75301820894729   -2.58806224367246
O          -1.82162834024255    1.45839979734827    0.90758444208764
H          -2.60924738763467    1.75957701633473    1.36147182673695
O           0.41034664830829   -2.26012568448659    1.64194646950660
H           0.65180493925903   -2.98316834164540    1.05954227248885
H           1.05760400384591   -1.54706483281449    1.45065643294731
O          -1.12277533987418    1.26080323814278   -1.83366362814106
H          -0.14970172393971    1.24570016761551   -1.73687791079427
H          -1.20468408404460   -0.35114634745141   -1.87480601065692
H          -1.47677315341305    1.50010353718680   -0.96347088533829
O          -1.88997840972415   -1.11892034947786    0.91097301728206
H          -1.85317204127908    0.44998445585604    0.94585394301754
H          -1.82785253784574   -1.36249933808326   -0.02396043534804
H          -1.10961815639267   -1.54806299157833    1.32973310055074
N           0.80639154316409    1.95171647613584    1.07863686309651
H          -0.22875522513766    1.87756554931330    1.18657612545440
H           1.04549153605501    1.86946587504260    0.04647324739616
H           1.19672878479835    2.76969567909808    1.53115872876915
