    26
        -50.47356260  Gyration_radius:  2.43500460027 Dipole_moment: 2.300
 S           1.62736974375349    0.39392853363208   -1.39858546181333
O           1.27227170400745    1.19846976254958   -0.23217384816685
O           0.89835446811913    0.81136377920744   -2.57938281594648
O           3.15329968806929    0.70536677130789   -1.69971868150680
O           1.54812596447741   -1.02200666097287   -1.12806714284299
H           1.16131406378872   -1.76511170007034    0.21303527951923
H           3.08122090114135    1.53099168125041   -2.16639396593271
O           0.86705929953428   -2.21927806159999    1.04678414167337
H           1.30731210904382   -3.07018247346677    1.05025573599774
O          -1.39369006022356   -0.17349262691106   -1.90684319492374
H          -1.78458061328720   -0.55951984518104   -2.69297582925025
O          -1.21789401834631    2.11274719683666   -0.30776123493316
H          -0.24919014186537    1.95526799232442   -0.32723475279370
H          -1.56453177805603    1.53145003320739   -0.99977889988804
O           1.05172798808915    0.24852699056193    2.24240307773391
H           1.11402019353812   -0.70341845412858    2.05744743258103
H           1.28642119698362    0.67788444343958    1.39196306823557
H          -0.50091445307985    0.15272138561329   -2.18337506953644
O          -1.72732830361851   -1.60480174895579    0.42256134177697
H          -1.75716940038177   -0.31968041721854    1.36791502997253
H          -1.61852076760548   -1.19668057809006   -0.45681268056336
H          -0.85801976914237   -1.98754283763568    0.64402145888504
N          -1.51787831261240    0.60627415218172    1.83280323878986
H          -2.15676380062678    0.84354330631708    2.58165685341636
H          -1.51268170764315    1.33410894088328    1.05855604606578
H          -0.50933418389983    0.51907044470753    2.16970087349927
