    26
        -50.47356261  Gyration_radius:  2.43490944266 Dipole_moment: 2.299
 S          -1.31512028288318    1.29466263718100    1.16284901856423
O          -0.94507665833451    1.46961997400909   -0.23941387063839
O          -0.37219158355066    1.94419978480367    2.05102735635842
O          -2.68938915971002    2.06334960277769    1.35466919017823
O          -1.57482984542720   -0.08759749344164    1.48917458260601
H          -1.53071672595325   -1.36305345373098    0.55546362188605
H          -2.38451045185463    2.95958223612372    1.44636023706953
O           1.55072405803541    0.24072594406683    1.77289839662946
H           1.94326003206319    0.10345141223030    2.63715682198484
O          -1.44937802482300   -2.16209943516242   -0.03010750200421
H          -2.06181270489958   -2.80856976847024    0.32321122292767
O           1.67282905982275    1.69404067282108   -0.61200560247258
H           1.97035011608396    1.36054239027066    0.24658906716280
H           0.70322259367871    1.80168813418858   -0.50312419115169
O          -1.24555501130684   -0.38832627092586   -2.11893951266609
H           0.79139932045147    0.85897059271853    1.91779525965489
H          -1.48721279121544   -1.14642792085083   -1.56098768521157
H          -1.27391290448265    0.38078489953006   -1.51037440160726
O           1.27456824000909   -2.01590879441848    0.21764128543108
H           0.32282075363399   -2.22733098308050    0.19536474700587
H           1.46217390099937   -1.24881266142033   -1.16929917706671
H           1.36662585215995   -1.28546868152751    0.85768625413332
N           1.37132758615715   -0.54745699618515   -1.96329956490633
H           1.61976308037821    0.40020719642006   -1.55165953963540
H           0.33343587831147   -0.50597393939180   -2.20707885606780
H           1.94720568261571   -0.78479907870730   -2.76159713827713
