    26
        -50.44576667  Gyration_radius:  2.58329507208 Dipole_moment: 6.294
 S           2.03951518643953    1.94084675882128    0.75053166104361
O           2.14820454973950    0.57823250357705    0.28424660757079
O           3.23546264051601    2.63893046615472    1.02812942190244
O           1.21346676435522    2.73242308515042   -0.30677245530721
O           1.13432615998063    1.96204212455727    2.00993867181812
H           0.39269642612771    1.29866683983760    1.95650940171671
H           0.60404671014932    2.12011072693054   -0.79545452331206
O          -0.85934269445586    0.29177340089413    2.02380021966604
H          -1.39678972776260    0.52231302206071    2.78299210710106
O          -0.31504360343413    1.15339829408422   -1.72418722710944
H          -0.30919009624650    1.49467633794029   -2.62013035902501
O           0.77260120508364   -1.67759503067429    0.95621507719590
H           1.50997217811162   -1.04821106765137    0.90935630350532
H           0.10433668624554   -1.20297662734327    1.47171393933852
O           1.07372736771881   -1.03968525768523   -1.68255692943196
H           0.82023948230642   -1.44836912931176   -0.82943935803586
H           0.18590064313627    0.28173005914739   -1.74245827425626
H           1.92113115702567   -0.62568098140300   -1.48071107400402
O          -2.32371523591753    0.20961358101446   -0.08455531549625
H          -2.22746775567040   -0.74494009271250   -0.32750260894250
H          -1.47398190834381    0.31273041370408    1.21930055930549
H          -1.78528966971493    0.69052281084444   -0.73123165741416
N          -1.72364773690509   -2.36231842244663   -0.71765706577868
H          -0.98704769207309   -2.58707419000068   -0.05648778768428
H          -1.31995770175227   -2.41158465440881   -1.64545545020163
H          -2.43415332467270   -3.07957498108549   -0.64813386415944
