    26
        -50.44962134  Gyration_radius:  2.52234290583 Dipole_moment: 3.559
 S           1.29880814693877    0.37788454896574    0.00898848569415
O           1.55201874724664    0.56197476637884   -1.40689556691945
O           0.12390235114625    1.10331937399525    0.46458125772486
O           1.18546037011134   -1.04414235007519    0.35807889345481
O           2.50641601821663    0.95255413744367    0.81970376441212
H           3.26977474327749    0.43950445047988    0.46349752190188
H          -0.22754518380176   -1.52929399361832    0.21309257932792
O          -1.17990937919048   -1.86684839405426    0.09178157352128
H          -1.20228687621829   -2.72665877441320    0.51627584585233
O          -2.73260166819073    1.44493902448336   -0.92254408446442
H          -3.47349560089516    1.35774360187972   -1.52614671589219
O          -1.13506004288208    1.05651640953877    2.65081617749485
H          -0.48140531415126    1.07982772715207    1.88760335954100
H          -1.34153368194387    1.97486883431619    2.83774333927129
O          -2.71777584274487   -0.08746925039864    1.06849429850713
H          -2.13923496828694    0.38313257712508    1.80310187118251
H          -2.77264237610063    0.59671787260718    0.27487330905569
H          -2.11774338377769   -0.84093922586715    0.70410273789861
O          -0.92867580523400    0.01414800710855   -2.13333745799176
H          -1.01302927030960   -0.83196691660271   -1.67997736960895
H          -1.94401881102693    1.04583785029195   -1.39399432627847
H          -0.00327061755305    0.30363391860536   -1.97827969000699
N           3.91842308576933   -0.75650211295177   -0.58784842630894
H           4.79820422630476   -1.11641063763134   -0.93705100195865
H           3.39133312536245   -0.36296522578507   -1.36250551033570
H           3.36588799794354   -1.52940619896145   -0.23415485507340
