    26
        -50.44375221  Gyration_radius:  2.55158287978 Dipole_moment: 2.383
 S          -1.80451360562751    0.42247045924949   -1.03666742121288
O          -1.91673654945814   -0.59435581172005   -0.03096895541945
O          -2.98442958707991    0.90919927813878   -1.64635279402196
O          -1.03113950895674    1.62404252303527   -0.38929566696949
O          -0.82711712469539   -0.04520230490271   -2.14503570730256
H           0.00735903449976   -0.40258686134816   -1.73167538484493
H          -0.55291278735480    1.27683112173925    0.43776727386862
O           0.19382011172919    0.82129394883388    1.69727321113384
H          -0.43892363340123    0.84999535918087    2.41659044604963
O           1.43726937823322   -0.83449872924015   -1.15514424427002
H           2.00620784763777   -1.08960571310812   -1.88364475102154
O           0.91252361114425    3.15406070579187   -1.58236151079048
H           0.08896110447074    2.70762949501342   -1.32780867072364
H           0.75155345081828    4.09629660402223   -1.51499252961009
O           2.33637324346496    1.36555993450069   -0.11000854832000
H           1.84639437314387    1.40530100280383    0.72044099763615
H           1.84153692646533   -0.00017231535738   -0.76433434998733
H           1.98397192826801    2.07993437315881   -0.67384310129061
O           0.93955451562517   -1.62901664513373    1.48923462771162
H           0.12856670799310   -2.19269826007051    1.55466259101264
H           1.19307042510719   -1.64214064113750    0.55641492588506
H           0.48995855166949   -0.15053621572522    1.63625838657574
N          -1.38799114004761   -2.98509472361508    1.44046738574687
H          -1.77829861162819   -2.21516159326208    0.89931797961672
H          -1.96535224860244   -3.10687514101057    2.26273797090124
H          -1.46970641342203   -3.82466989981416    0.88096783963319
