    26
        -50.44375206  Gyration_radius:  2.55153368689 Dipole_moment: 2.386
 S           1.57819339501433   -0.20821680245675    1.40558561195397
O           0.38833707024455    0.39962896675245    1.92776939184159
O           2.61079429633436   -0.56431301251390    2.30435430367387
O           1.13027203285457   -1.48466352540769    0.61100633710810
O           2.17516956211606    0.68697857492741    0.28987248693901
H           1.45709825322703    0.95818885049448   -0.34717457054692
H           0.13814333680848   -1.39367959669861    0.40958572669832
O          -1.35616643631391   -1.32272728154171    0.07159777654244
H          -1.82748638378413   -1.64805378227524    0.84013183443180
O           0.40073232000842    1.29762551501622   -1.50125723798091
H           0.82928390156162    1.83144829995129   -2.17270791276588
O           2.13284684005298   -2.34484125452759   -1.79667997663811
H           1.99757360005065   -2.08494652206596   -0.87122101000428
H           2.39949490820676   -3.26528031087848   -1.79197460461578
O          -0.14535678323305   -1.03671644585051   -2.49798823499470
H          -0.75331307102856   -1.39584117692250   -1.84019384234797
H           0.18071356439796    0.41991630859282   -1.94114150781443
H           0.68190976741703   -1.54838960701488   -2.41890813717128
O          -2.10935104044511    1.11146992083586   -0.26106405871275
H          -1.67464090143876   -0.36443554195835   -0.05543646701603
H          -2.11099033407215    1.54599975075792    0.62828945975256
H          -1.33354714642845    1.45931277328008   -0.72114069559940
N          -1.82007360056712    2.19279114811946    2.18955226824545
H          -1.53968642416901    3.16097308666117    2.28219853685461
H          -0.98575525032817    1.61857738278257    2.29983470611915
H          -2.44419546651951    1.97919427189929    2.95710980609569
