    26
        -50.45877754  Gyration_radius:  2.39781318955 Dipole_moment: 7.460
 S          -0.30467392675425   -0.77361324375703    2.05850404192347
O          -0.99636199642480   -1.63988970496679    0.94156213249750
O           0.33934136399147   -1.60364040404929    3.01879101444874
O           0.65406831915621    0.09875720966304    1.33452008064037
O          -1.41836367383879    0.05077801905074    2.53723727633546
H          -1.87303672039831    0.48284470984546    1.25862002543320
H           1.85994445827454   -0.42989445611877    0.44741734700876
O           2.53075121879026   -0.72633688461163   -0.22412739352648
H           3.30663771340771   -0.98936966874981    0.27209245206619
O          -0.95461423702141   -0.35320864562517   -1.96333925658952
H          -1.30294596268713   -0.31924073276613   -2.85490157523356
O           0.14885857208281    2.43716989101912    0.42202066514446
H           0.39354503664697    1.55971958697082    0.83860620379258
H           0.39238146652104    3.10885247334029    1.05982289821313
O           1.19873876578455    1.12482379321382   -1.82079762291914
H          -0.13161694525182    0.21307780081189   -1.96027545370875
H           0.95823418336098    1.76966421396871   -1.13808695869578
H           1.84418286825586    0.53056662292236   -1.40538070552993
O           0.57585397599188   -2.49087054662839   -0.93953711621711
H           1.40089290090651   -1.99282298800811   -0.79121161146342
H          -0.34171343568622   -2.10428539149256    0.35459507299830
H           0.03207582032816   -1.93352758208528   -1.51647312571566
N          -2.06516196443259    0.89902480046131    0.24370283306274
H          -1.76453198580309    0.21095129197064   -0.47441041899265
H          -1.44035523629805    1.72465331716850    0.17427978181904
H          -3.04213057892199    1.14581649845540    0.12676943322341
