    26
        -50.44506472  Gyration_radius:  2.46388308347 Dipole_moment: 4.559
 S          -0.18542985055752    0.27791009867900    1.68790482162002
O           1.19459103992392    0.67868994859201    1.53380043418197
O          -0.85667890539396    0.73022237889475    2.84903530509602
O          -0.91964947969543    0.72758256869889    0.38988846920855
O          -0.28119010133883   -1.25592361200614    1.61155459373542
H           0.06352979862033   -1.60612498758711    0.73417872246554
H          -0.46450186426859    1.59610797211901    0.10699540431571
O           0.49958949155351   -2.16134588179447   -0.67308685808006
H           0.11047246138626   -3.03028467634211   -0.78997370565072
O           1.52474622455669    1.20219644393367   -2.26551879382971
H           2.12392171222684    1.42199805070552   -2.97991550928923
O           0.56235181197821    2.67860441093964   -0.22198265358106
H           1.17342761851590    2.41828636067111    0.48099123474350
H           0.93911111596014    2.33121653754644   -1.05772227114094
O           2.62378823212128   -0.35405640656608   -0.48009899077862
H           2.02752655993569    0.60593441485974   -1.64104640159930
H           2.26167862717335    0.02517090441543    0.34495139891375
H           2.19437735713188   -1.21359930319093   -0.57608079848579
O          -0.70637667370671   -0.41025415444116   -2.15376596904750
H          -1.24102927707434    0.00439701344352   -1.46446179745113
H          -0.00282125925217    0.22857919138345   -2.36969763738154
H           0.02477701899860   -1.54864885475494   -1.31478031087261
N          -3.23830638787341   -0.81527763259033    1.78540718578530
H          -2.78809149134649   -1.69734223847939    2.00081460185287
H          -4.04953676254607   -0.74316002005260    2.38961813238863
H          -2.59027700701674   -0.09087849708104    2.07299140289117
