    26
        -50.45260138  Gyration_radius:  2.49765157101 Dipole_moment: 5.350
 S           0.62479763486256    0.15594842923343    2.21087765772659
O           0.98176949955554   -1.17190346600801    1.64928270769873
O           1.41139424215662    0.51504969219846    3.33966373310457
O           0.69187071481936    1.14536486930124    1.10903886306508
O          -0.87462352624543    0.07418636096057    2.63794304581897
H          -1.41238224184759   -0.12871020272439    1.84040431949292
H           1.97756667038242    0.69017880372310    0.31936044643587
O           1.07952942106163   -0.52667957339918   -2.23987099512129
H           1.12229170220077   -0.55474421333568   -3.19590879012667
O          -2.36448462684307   -0.62681643356332    0.53856944329420
H          -3.03803974343112   -1.22818250785768    0.86125153133358
O          -2.73782965856595    1.51058550485086   -1.12273223943484
H          -2.70260093968169    0.72931325182085   -0.54068822541646
H          -3.02611935027574    2.24351241961068   -0.57615917375652
O          -0.05187092446876    1.63737167379257   -1.43166958988467
H           0.59405063374043    0.32642481038556   -2.00102526347506
H          -1.02921302870572    1.63619575222354   -1.48447174344942
H           0.15195407205416    1.60420491827060   -0.47776687419416
O          -0.42420513421694   -2.02986933504046   -0.40982062430463
H           0.05056670028107   -1.61732385158990   -1.14846788159635
H           0.11818338137409   -1.85364576177692    0.39227043923027
H          -1.67615067523491   -1.19861006215322    0.07889762111373
N           2.56206172890503   -0.13187946127613   -0.03613349360171
H           2.16321593439392   -0.84684800314133    0.64780902715571
H           3.56295297014746    0.00527026291949    0.04174625781852
H           2.24531452362146   -0.35839387745911   -1.00240020892705
