    26
        -50.45260133  Gyration_radius:  2.49763605193 Dipole_moment: 5.350
 S           2.22831329132168    0.55999886348142   -0.15539848916943
O           2.05320551307899   -0.73700750130325    0.54688153443915
O           3.51569942703749    0.70930810916013   -0.74038916995846
O           1.12012666722180    0.69926545496801   -1.13002814563920
O           2.01884948713133    1.68001474273030    0.91182573579413
H           1.10930560029205    1.59460224619617    1.27493754420493
H           0.99123292841869   -0.76020762960341   -1.71154223611735
O          -0.38179504278289    1.39966336222817    2.04184028254624
H          -0.27796651388500    1.59987260163879    2.97380280147414
O          -1.51231597219189   -1.94285817693158   -0.62973992339826
H          -2.35502765583486   -2.36903096238822   -0.78737101193207
O          -2.33623821798113    2.33181329750796    0.37482323363965
H          -1.68567069859928    2.04852283691495    1.04333553086867
H          -2.06272058999050    3.20269742452404    0.08194200728226
O          -0.25472260214761   -1.15607452383762    1.75122872505475
H           0.66450898851377   -1.08868072328799    1.40614886819436
H          -0.43744485385609    0.39735809999747    1.97572439919542
H          -0.78830640622103   -1.50739411322810    1.02110555408153
O          -1.54573565025380    0.49507553071678   -1.44931749603546
H          -0.59680195478978    0.71751828952634   -1.39834624137041
H          -1.61344846120928   -0.98711876586516   -0.94104947621713
H          -1.98894272056456    1.12603775994416   -0.84644420948950
N           1.02284452726006   -1.80892809864083   -1.50459265499989
H           0.05373396945262   -2.12408413731917   -1.28830574221794
H           1.58035197579021   -1.71973646872684   -0.59938318796348
H           1.47896496478620   -2.36062750837838   -2.22168819227152
