    26
        -50.45168969  Gyration_radius:  2.43174651885 Dipole_moment: 1.670
 S           0.44512928315063    1.73291621181716   -0.28569061900724
O          -0.54524374092859    2.43792505546622    0.47799704068065
O           1.51331594824548    2.46706057473033   -0.86198089060669
O           1.05807542248913    0.62946580061970    0.62290962121860
O          -0.25748265159291    0.95038296015203   -1.42129429885828
H          -1.05524101769678    0.43243785618287   -1.09338498904059
H           0.42437643700416    0.32245742721099    1.34001310704631
O          -0.52660494821967   -0.18291601144210    2.49607847643315
H          -0.25824370173477    0.19189064672595    3.33678649033775
O          -2.20660559791775   -0.51255313712724   -0.62380414447200
H          -2.62066817816650   -0.92868569597170   -1.38196070290239
O           1.81728420938865   -1.92728226447655   -0.34899788041779
H           1.96046662083573   -1.29787104166088   -1.09982717127092
H           2.22309316308063   -1.49144356741775    0.40349311962311
O          -2.57061771328489    1.11770040246047    1.60035575947633
H          -2.83453695709920    0.58294092757249    0.83896236905722
H          -1.39253498053801    0.26851402646430    2.25068998407208
H          -1.98944804052031    1.81365151983924    1.23591297385487
O          -0.67737182310582   -2.21142174830849    0.53051475129135
H          -1.65239786878950   -1.23438356536347   -0.17462334028421
H           0.22636149547050   -2.18846158335833    0.12850516480670
H          -0.57996359524325   -1.84437919197368    1.41722966236613
N           2.34196930496547   -0.00414343196201   -2.18081288108857
H           3.27287370672307    0.01097756484933   -2.58058010734010
H           2.20400654305743    0.86938576639456   -1.67938510398540
H           1.68000866074267   -0.00416553201192   -2.94710637096553
