    26
        -50.46412563  Gyration_radius:  2.39991182398 Dipole_moment: 4.122
 S          -1.34029163307158   -0.72903271843060    0.92768133737270
O          -0.12603891205035   -0.13132440912628    1.47730750055099
O          -2.52524415441289   -0.29258495865379    1.62856415023099
O          -1.45401984507577   -0.41933278158857   -0.51511932653939
O          -1.19580952496401   -2.27143893192463    1.04198155232486
H          -0.35094147232894   -2.49378730636002    0.57144795707411
H          -2.10968212282302    1.04373200832512   -0.47566865820366
O           0.99628554220906   -2.75243244125315   -0.35508262321395
H           0.90958237697811   -3.61167473355315   -0.77167771436027
O           1.98037271107813    1.30609153332975   -1.00061669819085
H           2.80256822479175    1.73504512604303   -1.24089231712927
O           0.12090701625234    2.38336813875743    0.74056351815713
H           0.73788670019048    2.22206778267514    0.00247944513102
H           0.11955448873051    1.52282628528383    1.21734117685826
O           2.39981873881206   -0.56324198643766    0.81107434272466
H           2.33866512376084   -1.45812840305717    0.45804623009833
H           2.21353213215098    0.63325354342631   -0.30430872401584
H           1.52703076268397   -0.41319782774044    1.22916057885318
O           0.59870751009946   -0.86517372573435   -2.10373161183848
H           1.14092517855708   -0.08188774438094   -1.91721071417627
H           0.90682628482997   -2.07435282046139   -1.08890896470903
H          -0.25328110076435   -0.68401031287230   -1.65366873993716
N          -2.34639046325883    1.86179716468520    0.15658247862482
H          -3.03647896744987    2.50889926001879   -0.20943045400853
H          -1.38499552181174    2.30074798306357    0.38085605582145
H          -2.66948905312017    1.32377228596990    0.99323022249350
