    26
        -50.45061095  Gyration_radius:  2.47906552502 Dipole_moment: 4.884
 S           1.42584276719247    0.70057009752545    1.80140111000839
O           2.23167725226354    1.14538530027700    0.55978042156450
O           1.59548686561638    1.66237031961309    2.82659602627671
O          -0.04880564544046    0.71922472591840    1.27675378821078
O           1.70436318212438   -0.67538415396357    2.11021345687497
H           1.02545181123179   -1.72391242867719    1.08205564945507
H          -0.12928007847359    1.49953210186336    0.64182561972538
O           0.72937107948518   -2.31086809888954    0.34211392393267
H           1.01071744995551   -3.19665093616697    0.57704172518699
O          -0.22214224037540    0.52691708602396   -2.33535356655752
H          -0.55923025002604    0.57529632511405   -3.23049301902246
O          -0.01177421140537    2.51123801839105   -0.53742998140052
H           0.92506941159537    2.72972150303041   -0.50836185209146
H          -0.13189117200672    1.88938584370255   -1.28924140144575
O           2.02045855093473   -0.57498219793193   -1.27457720421507
H           1.30771073212791   -0.18127078119348   -1.81484186947140
H           2.22688597537738    0.42043232310097   -0.17268807205480
H           1.61706638802312   -1.34195110508110   -0.82060683664839
O          -1.48485502007509   -1.33911304936655   -1.08596792887799
H          -0.79150079052295   -1.79009761774802   -0.58022793538514
H          -2.07968614534490   -0.94007072126254   -0.40758266317115
H          -0.76967081841450   -0.18086820490045   -1.86581237612731
N          -2.84849957882416   -0.17122395468236    0.94806585479944
H          -3.41917287178767    0.64293679978952    0.75941876644398
H          -1.98504099366963    0.14914261834906    1.37613708561101
H          -3.33855165956276   -0.74575979277946    1.62178126839914
