    26
        -50.44787722  Gyration_radius:  2.44903135511 Dipole_moment: 2.590
 S          -1.52496846319692    0.40589935927789   -0.95412820264404
O          -1.47054068100608   -1.01930494454680   -0.80410609592201
O          -2.76225858771711    1.03486479724348   -0.63314554478715
O          -0.37816090841285    1.02791512751797   -0.10374487904063
O          -1.09540783622810    0.80913346046731   -2.37944667235301
H          -0.18209604622852    0.41283176741708   -2.52539836098887
H          -0.22509799442349    0.38698315201248    0.69395064683424
O           2.49553545512233   -0.22009597719152    1.25902846305334
H           3.39999967128810   -0.53208171113997    1.30982724211215
O           1.24193442689904   -0.27230333668564   -2.58408397190830
H           1.29459659094365   -0.81590705291412   -3.37236297277541
O          -0.22479936198655   -0.53659771219049    1.84141729578535
H          -1.15098395658748   -0.34225888502084    2.16159498139726
H           0.42773907784074   -0.23250604362276    2.47839739696337
O           2.26802396054735    1.59450780880588   -0.72879245640513
H           2.49419970264929    0.50552904434769    0.59573193963017
H           2.21699953969122    1.07427042833496   -1.54131563860525
H           1.34913472403057    1.79799426492492   -0.51078196847835
O           1.09460826509718   -1.81074454454597   -0.53704280478751
H           1.47033616968088   -1.36356640944266    0.24566108712827
H           0.12642320342408   -1.74937400306823   -0.44954199378401
H           1.24403893331551   -0.91570363681641   -1.79772803398478
N          -2.76024140393604    0.13217691843411    2.14746287828594
H          -2.86172495029385    0.49695797714148    1.20014469789240
H          -3.14084414726678    0.82319534055715    2.78318315907546
H          -3.34644537316015   -0.69181518923612    2.20521980833676
