    26
        -50.44787733  Gyration_radius:  2.44893455293 Dipole_moment: 2.589
 S          -1.79422803216726   -0.18075679459434    0.38288585336035
O          -1.33433509402401    1.02661899616895    1.00533601700757
O          -2.99104642272760   -0.08764384615673   -0.38434685283292
O          -0.64074513721485   -0.74160641404664   -0.50054096795374
O          -1.94050222840488   -1.30035969724287    1.43336036168234
H          -1.04667419993956   -1.38470445615975    1.88794961307984
H          -0.09175215999649    0.07566837622719   -0.81816614066645
O           0.41555969930370   -1.38677906838087    2.48926064351292
H           0.36098388130422   -1.31223453135546    3.44376101445870
O           2.73039924036775   -0.20122743272847   -0.60280211237417
H           3.65471440319311   -0.26393405774423   -0.35844992037374
O           0.49653286633115    1.33591294908844   -1.30427884243572
H           1.21182539560490    1.12595607182468   -1.91114727075125
H          -0.30455246999970    1.66711720753145   -1.80095517854169
O           1.30111631209070    0.82723720817447    1.54499924086008
H           0.82308531615691   -0.51554750334106    2.16163206341784
H           1.77177365635762    0.66748610324224    0.70427584359666
H           0.42473879211767    1.17890190942650    1.30613872181219
O           1.44754817061073   -2.47352699007429    0.09502157682648
H           1.28406388549044   -2.38919711768527    1.04350267183914
H           0.62031668971914   -2.19814890139996   -0.32108894884595
H           2.33990574151602   -1.08526110426320   -0.42249154922620
N          -1.90558479133228    1.87900628356499   -2.25524665898618
H          -2.21453118900981    2.79539675965210   -1.95382965388533
H          -2.38247322680285    1.20007524299233   -1.66166725423635
H          -2.23613910891458    1.74155080797529   -3.20311226029534
