    26
        -50.45476389  Gyration_radius:  2.4734837666 Dipole_moment: 6.123
 S          -0.70091092367293    1.27377967872583    1.83390672861197
O          -0.04125038262671    1.73893683621093    0.58392627297656
O          -1.19013092765747    2.33539812696316    2.64070986431794
O          -1.72537708688368    0.27196047305724    1.46451946471744
O           0.40853709312535    0.51405157212818    2.63018757384720
H           0.78274921817331   -0.18767914118218    2.05293366457076
H          -2.16412876161172    0.54491786217724   -0.05042733680943
O           1.52809427581332   -1.40987795163180    1.17679849899337
H           2.36393101257752   -1.64908243961820    1.57918422913619
O          -0.77437341470011   -1.37671527017343   -1.93190343867132
H          -1.05914339511460   -2.07752630231187   -2.51911981364313
O           2.02686394867408    1.88567828629279   -1.05713810428171
H           2.76421677177067    2.33648795390708   -0.64393479948269
H           1.29282988464977    1.91542273268168   -0.40948770452489
O           1.91317169892328   -0.79092093692879   -1.31514728371454
H           1.04827596675836   -0.96114394319524   -1.71805437097896
H           2.03424656559572    0.18112722594362   -1.33345713269201
H           1.72777619460771   -1.17108197019139    0.22203344722819
O          -1.03787423139323   -2.11211448888484    0.53667090007526
H          -1.39231302288573   -1.31095823298919    0.98223540024396
H          -0.87495565128221   -1.73572931534540   -0.99478828611796
H          -0.13309629837923   -2.19045541028402    0.87326287922662
N          -1.82623399490093    0.91253160114140   -0.98739234933219
H          -2.49081598476636    1.51124993799300   -1.46279075661091
H          -1.50105937815216    0.11396807160155   -1.57112527266698
H          -0.97902921666698    1.43777504371877   -0.58160226444895
