    26
        -50.45476418  Gyration_radius:  2.47346865249 Dipole_moment: 6.128
 S          -1.68590329822436    0.50155975105906    1.54563353084095
O          -0.98733131072082    1.41685464413918    0.60319415672266
O          -2.80894403367017    1.09671490663840    2.17961411133434
O          -1.99299139072095   -0.75224472507591    0.82217201621874
O          -0.62764407943377    0.14537565561857    2.63889115877060
H           0.17360192644893   -0.20842327989341    2.19357555344770
H          -2.06268424728695   -0.41942681466204   -0.74175001255668
O           1.60926102340198   -0.81306049837840    1.56798373158114
H           2.31327104510818   -0.74370417239528    2.21398174920377
O           0.51416197915109   -1.20657996953025   -2.12264983519563
H           0.75526021449782   -1.84599649470019   -2.79349276776724
O           1.13627904985841    2.72106562214310   -0.28179566758122
H           0.32850158258854    2.31938634520167    0.09899806385549
H           1.43601030755035    3.37082836880910    0.35526376212942
O           2.34381727703122    0.34161512486383   -0.63914367743487
H           1.80476407829072   -0.10622714293855   -1.30865732553095
H           2.00486344042362    1.25929495064510   -0.58808562645848
H           1.93318717966308   -0.34629602210680    0.74010219073207
O          -0.05796794795954   -2.40897246670143    0.09747730419979
H           0.64745345796974   -2.15413240589388    0.71026593080393
H          -0.84939731744965   -1.92777804579576    0.42661912046067
H           0.33268956220265   -1.73430042172927   -1.28239088752720
N          -1.68124856598497    0.21851975335553   -1.49994991273932
H          -1.31718297574338    0.96699535827209   -0.81787944509421
H          -2.38200436133912    0.55956233866277   -2.14705295035941
H          -0.87982260565221   -0.25063036958644   -1.97092425205560
