    26
        -50.45476377  Gyration_radius:  2.47352873441 Dipole_moment: 6.119
 S          -1.49769936618596   -0.77151751953104    1.62424756018153
O          -0.78701456582716    0.53472404559522    1.56922736015274
O          -2.49887092423980   -0.82515433813526    2.63019599747972
O          -1.98834692733023   -1.08259147474652    0.26358283852894
O          -0.39665495321461   -1.82821747392336    1.96098957813271
H           0.31997305330924   -1.75680637709936    1.29243016056517
H          -2.14924717654639    0.29804541458190   -0.53665678787925
O           1.62615133109268   -1.73388608298813    0.23804609781872
H           2.38008222639484   -2.17741664171726    0.62871033025759
O           0.21700221126025    0.75156440253012   -2.36938059942819
H           0.33817187215381    0.81451370305458   -3.31721576899368
O           1.40575650840378    2.00942746959844    1.66345724785117
H           1.82137797813847    1.95549473817810    2.52495030735242
H           0.58381046899956    1.48042468485329    1.72460254619317
O           2.31177471935269    0.66411992958880   -0.48430478334245
H           1.93558028988056   -0.81291255075301   -0.01575614589529
H           1.67696257229054    0.86980167211582   -1.18716503405234
H           2.08024665992261    1.24610437793373    0.26908561770083
O          -0.31076702896497   -1.69144398655491   -1.69375360540236
H           0.46361548606481   -1.98599020277011   -1.19212349041008
H          -1.01624130042115   -1.59875673211639   -1.01565814363616
H           0.04462092308242   -0.22230167007830   -2.17131467899660
N          -1.76311608187022    1.28223533726837   -0.62710305989147
H          -1.05345193918306    1.30275547418220   -1.38881796422143
H          -1.27143435525278    1.27838811295412    0.33100782694388
H          -2.47228169117179    1.99939568795279   -0.72128339684041
