    26
        -50.45577744  Gyration_radius:  2.44042093876 Dipole_moment: 4.632
 S          -0.14952065562062    0.53681189572515   -1.96384056515286
O          -0.88330878570258    1.29888055275051   -0.83973670776736
O           0.45743647508365    1.50989039397686   -2.80607170513355
O           0.95099356960070   -0.26276106913750   -1.21403394299286
O          -1.03432538100171   -0.43339682652284   -2.54522956750436
H          -1.40448948821201   -1.69596805446305   -1.57995670708377
H           1.65307094951321    0.47499116085107   -0.98481368203099
O           0.14215312952072   -0.63018046476127    2.34547310708778
H           0.12768038981658   -1.04540295589237    3.20903957193595
O          -1.66930551923827   -2.35995057266370   -0.89654539183766
H          -2.32940785845209   -2.91746343006815   -1.31197625380657
O           2.33077092031864    1.74404641306062   -0.75543161862122
H           1.91619986396120    2.20073601313483   -1.49958634744440
H           1.86151699141896    2.03386044641779    0.08524112833633
O          -2.02090280757123   -0.26040000740194    0.78237526067361
H          -1.40621954876441    0.67742118440482   -0.20093160453373
H          -2.03996303454617   -1.10495428302001    0.29180618590259
H          -1.31535134355789   -0.35095871036246    1.45879457366394
O           0.73825394557022   -2.42065077408593    0.49366716184825
H          -0.11120132747888   -2.67657285967860    0.10186143904045
H           1.13094539622020   -1.82389431844996   -0.15834168444901
H           0.46970212141896   -1.32009345440875    1.71207896905270
N           0.84872700277531    2.20796564356270    1.38752909655152
H           1.03209775218276    2.88512877725609    2.11665535896204
H           0.74069712718577    1.29613368953970    1.82268616426290
H          -0.03624989441109    2.43678162023965    0.94928778100522
