    26
        -50.44243830  Gyration_radius:  2.49231839781 Dipole_moment: 5.217
 S           1.10972132673588   -1.80847897973726    0.74334269465339
O           1.33568015395267   -0.75078006034345   -0.21744824745879
O           2.25884354822379   -2.51653442064470    1.16951372439198
O           0.33039200773706   -1.18496105328822    1.94620766994535
O           0.05742282535464   -2.77305334233722    0.17754869141522
H          -0.85116933462752   -2.32410909674087    0.29153750705764
H           0.73357909509337   -0.29658639978085    2.16824773228521
O          -2.12033497609700   -1.54511149831940    0.61255225271279
H          -2.00306323711927   -1.35090957608690    1.54597909522457
O          -0.02324203573624    2.54422675516255    0.47396703149279
H          -0.04827778233663    3.50237103684749    0.46412314148420
O           1.13374717951627    1.19820139288365    2.48914993508139
H           0.72497783276586    1.72082760396082    1.76234007973300
H           0.73145267147047    1.49416779759523    3.30854920334318
O           1.49686294962439    1.61798524364923   -1.43762265295256
H           1.67546290067921    0.77798041535167   -0.97532806757566
H           0.95102101106050    1.37841281238773   -2.19171044497008
H           0.59698494119496    2.27035949608438   -0.25726529891848
O          -1.91499010156038    0.75809154764875   -0.63082779866072
H          -1.43099399222187    0.40716048856681   -1.40579892483975
H          -2.12770185122593   -0.66627075555000    0.14127812499096
H          -1.31915432138043    1.37612328819589   -0.18199638311339
N          -0.45932051148052   -0.71182272210087   -2.45028747015812
H           0.25340225176220   -0.90302023223091   -1.74530625210242
H          -0.00335347457239   -0.70715858620234   -3.35540233391601
H          -1.08794906678057   -1.50711118498479   -2.44534299913780
