    26
        -50.44604384  Gyration_radius:  2.49105954939 Dipole_moment: 5.647
 S           1.41376974463103    1.21676665473757    1.01941735184799
O           0.10626390841913    0.94025822357913    1.58316974407650
O           2.49142320230343    1.14544825420356    1.94171262567024
O           1.64242131868417    0.19418000160165   -0.14686790739177
O           1.37943797495659    2.52813505083147    0.25816526426693
H           0.63962411504031    2.37945058128461   -0.46481129504790
H           1.71148952930888   -0.71505939604416    0.23825203583245
O           1.49814185199749   -2.15545805153601    0.99476937203328
H           1.85919008728000   -2.04692064388314    1.87666991880603
O          -0.74910177454680   -0.75131299877536   -1.75936850363446
H          -1.19789440552472   -0.80550060635462   -2.60505748168485
O          -0.47264891297883    1.99027604422000   -1.33815948198740
H          -1.25689099192894    2.11200579969003   -0.74043600955501
H          -0.40749942302210    1.02932469318573   -1.48725334977503
O          -0.98396597140023   -1.39521195102163    0.95242236984589
H           0.50570340101628   -2.02511973160371    1.06574204130203
H          -0.72514580934633   -0.52352404968226    1.31324232293825
H          -1.12902676282662   -1.22962224793857    0.00772550681872
O           1.10428622232740   -2.72710161844379   -1.71842200535595
H           0.69985507406173   -3.59725703029336   -1.72066210003172
H           0.02575568076961   -1.35048028895508   -1.81598781841409
H           1.51395282618797   -2.61974845518439   -0.84906825813845
N          -2.32834149628303    2.12073414718031    0.59127078312303
H          -3.11858646104884    1.49131171635710    0.65361803890614
H          -2.62193397200995    3.02460496256215    0.93842002562541
H          -1.60027895607358    1.76982096027802    1.21149681996110
