    26
        -50.45061087  Gyration_radius:  2.47884503535 Dipole_moment: 4.878
 S          -0.14086074312066    0.78089744549741    2.26523852876650
O           1.38362939422156    0.61049926470370    2.07677382745623
O          -0.37816338004745    1.91580359485017    3.07793959783202
O          -0.63876857578791    1.04430189833605    0.80467534333219
O          -0.73835257195221   -0.46759107497583    2.65299708951180
H          -0.83369856886135   -1.54582063570692    1.45065917210529
H           0.06756447204126    1.59928506053252    0.34512290732492
O          -0.72217576419166   -2.21976843195299    0.73436295069728
H          -1.07194978061153   -3.04048705537999    1.08509657133703
O           1.71650144865958   -0.13239293812886   -1.67768869932977
H           2.16425758007014   -0.25655306991923   -2.51514299723388
O           1.36613059397710    2.15534035251452   -0.31417527531799
H           1.98666050283250    2.11162890051232    0.42012379900591
H           1.57631382081522    1.39844326133551   -0.90512663326113
O           1.86433268889012   -1.44450112169106    0.69356666962887
H           1.97692937228024   -1.04645638825879   -0.19182795603279
H           1.60759589164758   -0.26676650804556    1.58393197611421
H           1.00309543425621   -1.90794030399087    0.66912176202445
O          -0.64709114311598   -1.14192686267897   -1.85748825320542
H          -1.31855617462687   -0.41929472756472   -1.86025110012796
H           0.78231872251069   -0.49751467034527   -1.80067431415236
H          -0.76943848642174   -1.59746338093848   -1.01047681856094
N          -2.42466917586355    0.88447679011154   -1.54584323266102
H          -2.31386139611758    1.73178993625310   -2.08803955752767
H          -2.08358664753760    1.07124662499371   -0.60761851851982
H          -3.41415749394487    0.68076402993188   -1.48525685920264
