    26
        -50.45689304  Gyration_radius:  2.42830336548 Dipole_moment: 6.668
 S           2.09269565565777    0.22618773728272   -0.12243729192119
O           1.26502580660380    1.43737824474927    0.07430787701596
O           3.14177451558632    0.11642068386993    0.84825397382425
O           1.06737970702517   -0.97243931187721    0.14022062204865
O           2.44715315969483    0.06751297495118   -1.51852240482254
H           1.14743427877287    0.57677148885798   -2.32260435490041
H           0.89532034807837   -0.91874157669925    1.10247459900293
O          -2.00267959112082    0.05445643523577   -1.62759130015350
H          -2.81160075228038   -0.10029305547650   -2.11659173859592
O           1.21407324853540   -0.15680313233004    2.66053351225159
H           2.10645624546430   -0.03116702529298    2.28314930050602
O          -1.45058681156902   -1.27473965474256    2.08244756519142
H          -0.69285691867829   -1.33715065288267    2.66982665988766
H          -1.49241597666872   -0.33589725013509    1.80489882357008
O          -1.32780050990804   -2.14922350518715   -0.46236511849718
H          -0.36434706568716   -2.07888943664184   -0.49437588518104
H          -1.54101954756218   -2.00269754056495    0.48523492773893
H          -1.77228125861495   -0.82674481008311   -1.19126809695183
O          -1.27429055610510    1.17472731119324    0.93835986427473
H           0.83452633235551    0.72322319618358    2.74029044292549
H          -0.33684410771857    1.32823360657383    0.71647057962992
H          -1.71265681983791    0.96410906568905    0.10386803555018
N           0.31252460926337    1.23083225236045   -2.27355967434304
H          -0.60313518486419    0.72593751589770   -2.19677143544596
H           0.31157006554000    1.92670586390133   -3.01139666194961
H           0.54658114796116    1.63229056497209   -1.31285281064740
