    26
        -50.44604382  Gyration_radius:  2.49103623536 Dipole_moment: 5.644
 S          -0.75081774683324    1.96754804768951   -0.28567403251001
O           0.65883354900065    1.66452343649144   -0.44331063351855
O          -1.29483783472670    2.82278760914290   -1.28053194811024
O          -1.52149873189446    0.60213401159971   -0.27792074602652
O          -1.01654338031624    2.46310091820142    1.12291032318457
H          -0.69153752112322    1.67744766034323    1.73064642498250
H          -1.44313968254346    0.18947222437608   -1.17430009520746
O          -0.15857989201962   -1.84579530369160    0.88778112086942
H          -0.14338298196076   -2.53856988816509    1.55060252530518
O          -0.96402536341068   -0.48429909632718   -2.59152364777037
H          -0.88164829637763    0.24057236621638   -3.21413867127206
O          -0.11232205243160    0.50231953193096    2.38996499875579
H          -0.27367325919178   -0.26740493954231    1.81432372657448
H           0.86168141515031    0.68518829433914    2.31924971650959
O           1.25573740174681   -0.78240694969437   -1.27824759024210
H          -0.04318219976924   -0.67807601880400   -2.24302343568218
H           1.22187680997699    0.15609776539824   -1.00416845188405
H           0.96248889622045   -1.27141569260248   -0.49346830945092
O          -1.86300622999163   -2.64942275367665   -1.05908348402740
H          -0.89629961314854   -2.05990150690443    0.27741916097166
H          -1.83033655154550   -1.91674174976517   -1.68933421254658
H          -1.53685147757528   -3.42180234116767   -1.52560006513545
N           2.42006755830561    1.12667375931355    1.77315959639406
H           2.04010785844203    1.48039841034899    0.89658523453135
H           3.12941988341043    0.44032777018137    1.54904377329359
H           2.87146944263873    1.89724441476444    2.24863873201446
