    26
        -50.44604381  Gyration_radius:  2.49107183705 Dipole_moment: 5.648
 S           0.60732975280064    2.03390528091780   -0.11378601110901
O           0.22685947940273    1.42630542425927    1.14711435588075
O           1.76026520306286    2.86131558474407   -0.05659082756478
O           0.83710519938148    0.87051938982566   -1.13950396146765
O          -0.58830162662041    2.73596127600503   -0.72850900077549
H          -1.29897461622156    1.97681662422935   -0.83254875022189
H           1.62747900745155    0.34775407748237   -0.85329080869473
O          -0.82937957327255   -1.65411004091005   -0.89240634803940
H          -1.47443590266581   -2.25196040223554   -1.27446479260439
O           2.74619977954811   -0.57360643333684   -0.08399573079757
H           3.31937264993194    0.03934311319635    0.38036789367915
O          -2.16392034411883    0.79241680629081   -0.81666612662159
H          -2.44901109461259    0.75779319717096    0.13447451693869
H          -1.59548414665047    0.01122377255684   -0.94510966047199
O           0.70071833282044   -1.17233406329467    1.39868075114051
H           0.06234465985326   -1.49332633440113    0.74258529551249
H           2.07769938833246   -0.91319343543335    0.58289664058003
H           0.49016038466305   -0.22184252361773    1.49512956383540
O           1.57884789125787   -2.30722318036081   -1.94831290227530
H           0.00154342000706   -1.77970279333800   -1.39878239202942
H           2.17736868133025   -1.67695643474288   -1.52445100082723
H           1.86693988942117   -3.18012868447819   -1.67330928196152
N          -2.49759513691854    0.79577336941034    1.84262593758723
H          -3.07963248800644    1.50481383606210    2.26936511434323
H          -1.53155273030646    1.11598610448910    1.88807921234235
H          -2.57194606992804   -0.04554351049332    2.40040829364134
