    26
        -50.45689317  Gyration_radius:  2.42822708263 Dipole_moment: 6.671
 S           1.33303835204437   -0.22994517884602    1.61661489556828
O           1.84206737376370   -0.45753309297590    0.24568007456932
O           2.14083685230321    0.69647862514058    2.35404597216052
O          -0.09009315154587    0.45815387304343    1.37630945335773
O           0.99674216311972   -1.48686367113845    2.25486059944855
H           0.40465796070894   -2.39472159428073    1.06598809594568
H           0.14050540110428    1.34165998578707    1.02348500897442
O           1.37340530555128    2.52191729322704    0.57701276262987
H           1.86650403849993    2.10940276171097    1.31258360164845
O          -1.59295303983765   -1.50794777690075   -1.36268262142607
H          -2.32110344837652   -1.89760511223672   -1.84787501074267
O          -1.18010235465947    2.42395415719766   -0.89200824411639
H          -0.61673817825288    2.98220140355391   -0.34968809173887
H          -0.57151916189572    1.83319408571586   -1.38269517992454
O           0.44573766939403    0.48411277887769   -1.85842293043561
H          -0.21571645777894   -0.21431283749640   -1.94509248965066
H           1.85154202829859    2.28995177019603   -0.22449877162045
H           1.03303767960972    0.20715099630288   -1.13044645166558
O          -2.53862809330870    0.34982459940520    0.16150174639722
H          -1.94263369458018    0.27842370403376    0.91912913061927
H          -2.26580258716805    1.18822654115521   -0.27136286597394
H          -2.00273250006488   -0.79208202274232   -0.77987160443270
N           0.43999221612616   -2.56639401293655    0.01843080309100
H          -0.44733946010388   -2.30090111219529   -0.47292391498591
H           0.75023031831398   -3.50241394317574   -0.21872699627203
H           1.16706474876010   -1.81393223038677   -0.18934698144461
