    26
        -50.45564908  Gyration_radius:  2.41799308132 Dipole_moment: 3.086
 S           0.67834095831745    0.02639502040009    1.66169750191509
O           0.64255186297623   -1.05119043966155    0.70230107885528
O           1.88844928391347    0.15160357819228    2.40007339861781
O           0.32444954276979    1.33765610741754    0.93693979304556
O          -0.51283712092885   -0.13315731565086    2.63497490035915
H          -1.33504347939232   -0.29155919876973    2.09054061930736
H           0.85363679579544    1.36210880256429   -0.01184577086682
O          -0.85401299468820    0.28419951391593   -2.33088386635793
H          -1.08170576455542    0.62544609899756   -3.19686230086860
O          -2.60739027454375   -0.60109938934295    1.14469739601177
H          -3.22775839621191   -1.16251264861774    1.61311069354888
O           1.47815076731346    1.21086985194084   -1.23285284984041
H           0.80406166474844    0.71463501086575   -1.73884522595574
H           2.21187979775380    0.57908786472846   -0.96389608069681
O          -1.40489241084345   -1.90827959865910   -0.72774757609799
H          -1.30347123959157   -1.30998487108900   -1.48552798206880
H          -0.56184408979269   -1.81521317745856   -0.24162538182427
H          -2.22235510319401   -1.16076689510705    0.39655484915513
O          -2.07883598931074    1.64540112796278   -0.41240525942136
H          -1.30414824831983    1.87430708681063    0.12151464531313
H          -1.35173598399437    0.83861522570908   -1.67491859318768
H          -2.56142834274835    0.99320579618037    0.11477741305157
N           3.26256949862064   -0.38050981080083   -0.12944944831618
H           4.26895644005975   -0.34666266892111   -0.23882317490482
H           2.95825462156157   -1.33673523740670   -0.26612362631006
H           3.03615819429663   -0.14585983421640    0.83462484755115
