    26
        -50.45018992  Gyration_radius:  2.49741051693 Dipole_moment: 5.268
 S          -0.40170774451368   -0.05509175047327    2.38149613095755
O           1.02173225323144    0.10210075443972    2.18298847695320
O          -0.91832762772810    0.25947267123982    3.65941067773474
O          -1.10979624962272    0.78498102754457    1.27009528318067
O          -0.82345857740065   -1.48930327250916    2.00446776632428
H          -0.41059615101445   -1.77020063186557    1.13304930429555
H          -0.43589782862013    1.49078525656748    0.97744437981416
O           0.15574442867894   -2.28639009394597   -0.24372802156557
H          -0.24058475431763   -3.13525727535607   -0.44655171149234
O           1.72583784880168    0.96062468163339   -1.48940314379159
H           2.44423053359112    1.24778568552693   -2.05414562775698
O           0.80271761245001    2.31682489962659    0.64641026820333
H           1.33349547974802    1.87088327065111    1.32181786554366
H           1.11621634359991    1.96341332680199   -0.21500485213066
O           2.50478934883895   -0.88966090020839    0.17931428036257
H           1.93932616875423   -1.64409824145481   -0.03740322552071
H           2.09840180243107    0.24385142599771   -0.89847090675588
H           2.13677942414463   -0.54480049279116    1.01486434779194
O          -0.44664881503640   -0.65014710113805   -2.12237213526160
H          -1.28483895161914   -0.18654252506511   -1.87608991713194
H           0.25880771248308    0.01421898591806   -2.05717025395992
H          -0.10625153366494   -1.66166582002295   -1.00187896911342
N          -2.65241869171584    0.63208811732049   -1.23129746204618
H          -2.80947420449979    1.56616075235680   -1.58836273253070
H          -2.36032865389805    0.71802478664721   -0.26175953874069
H          -3.53774915308515    0.14194248252708   -1.24772029336242
