    26
        -50.44348954  Gyration_radius:  2.51255208541 Dipole_moment: 9.029
 S          -1.40926538598936   -0.61348209144843    2.08022083195447
O          -1.02695426561542   -1.73859537757049    1.26714259993116
O          -1.52050264160948   -0.82829493155401    3.47686513877938
O          -0.33448177719943    0.52253232685469    1.80693335350311
O          -2.67334605606135    0.03651847305680    1.52672617647104
H          -2.51674810169835    0.13843316462982    0.51369144898163
H           0.52597102243340    0.12277889142459    1.54165996301985
O           2.07972192702020   -0.19495078817713    0.97629048902007
H           2.68390746780754    0.32012935589917    1.51379113758233
O           0.02233683319589   -1.08931383253970   -1.95702162668478
H          -0.26078270737311   -1.62126443257625   -2.70168062255585
O          -2.09749498221141    0.36929890727114   -0.90452907195277
H          -1.61248867482855    1.23155431780736   -0.83665191832294
H          -1.42864443819186   -0.27424384845004   -1.19751679771102
O           1.84065211806007    0.82557020143733   -1.48800387719329
H           2.03530293804830    0.23915248043142    0.09070683815770
H           2.56033271638886    0.65159101062825   -2.09746588567544
H           1.10981956027573    0.22272999405815   -1.74736444587379
O           1.04913531261883   -2.60931159425754   -0.10176358155099
H           0.39774880843618   -1.72456918465765   -1.28128225560718
H           1.69502817647430   -2.04964922455947    0.34555605754695
H           0.24851456558946   -2.54052326448923    0.45444980049484
N          -0.52895711301723    2.50018797865670   -0.43710341969815
H           0.37741683355593    2.34513182119341   -0.86260229344116
H          -0.45061618983268    2.27988837476829    0.54989767927490
H          -0.76560593634243    3.47870125212768   -0.53094570843165
