    26
        -50.44364532  Gyration_radius:  2.40733797487 Dipole_moment: 2.440
 S          -1.82905413579831   -0.41030481064541   -0.28340533104784
O          -1.68561827570085   -0.33580249083427    1.14594710146722
O          -3.12815680380893   -0.35100002984140   -0.83483250257103
O          -0.95966226564519    0.70120844724688   -0.93357808028256
O          -1.13855920198124   -1.71200811413339   -0.78498221017588
H          -0.28073325665142   -1.87880800536501   -0.29059771370199
H          -0.17521709743230    0.95470224439138   -0.33084271095460
O           1.08102513088121   -2.16820183110641    0.45907587704894
H           1.09530866587745   -3.06848022480821    0.78869558010392
O           1.16406260838495    1.22961410891367    0.35748201067648
H           1.29689395909677    2.17378779290099    0.25656918238919
O           0.36688052957157   -0.59136491342476   -2.99877211421976
H          -0.22064471781637    0.01619520501046   -2.52737448137579
H          -0.06548622041605   -1.44843803431823   -2.96651703015713
O           0.65873592128415   -0.53572893080083    2.40627718811745
H           1.00745481391670   -1.56947166679207    1.27004386780416
H           1.02103371724462    0.28763354709546    2.04849485300522
H          -0.29562700345498   -0.47764094883908    2.21406516855977
O           2.43257613330637   -0.36558196431389   -1.23803273114324
H           2.25307943433174   -1.16770589951155   -0.72863202734010
H           1.84529206104659   -0.41747568355269   -2.01865275227682
H           1.78394189228767    0.73570134943466   -0.25858670792299
N          -1.27950053355598    2.62388079090232    1.25637255508222
H          -1.55220581183095    1.66172010584641    1.43138654532401
H          -1.85240282794105    2.95095110595017    0.48713572639292
H          -1.54341670519810    3.16261886058857    2.07326074719179
