    26
        -50.45899739  Gyration_radius:  2.47010194402 Dipole_moment: 5.003
 S          -0.28599722157161    0.24096801676111    0.99963020308794
O          -0.90988570028960   -0.22784593706037   -0.25772607956292
O          -1.03473977209888    1.31376895669239    1.59429046076799
O          -0.30732321114431   -1.00866162624448    1.95133892726894
O           1.12712275352770    0.51775624974822    0.79012795053623
H           1.91138501437769   -0.92218220765553    0.74424324793415
H          -1.27558415776479   -1.09058186891903    2.20124304886364
O           2.10198395886073   -1.87476067227746    0.56046831707989
H           1.67084789372074   -2.35182358684297    1.27445040447718
O           1.85088502785624    0.03262313722275   -2.89433523123233
H           2.80121082779008   -0.09522558153975   -2.92043112159773
O          -1.13866377292432    2.42918606348214   -0.91537987761509
H          -1.34702786832482    1.50709845338612   -1.11107564138672
H          -1.16421960577797    2.46861819744386    0.05074687038719
O           1.51163823959845    2.08105259356393   -1.36726034382470
H           1.69968046500358    0.88871392022150   -2.38029617490057
H           0.60223621700964    2.43725140740160   -1.40503172470228
H           1.55106877528949    1.62848588132800   -0.50544785422286
O           0.64066188614177   -1.68484570562544   -1.51496688000659
H          -0.09684510530908   -1.09391865286687   -1.02913096220028
H           1.13813061746205   -1.01236866282346   -2.15468979635604
H           1.29419578390494   -1.90606399797855   -0.75604091070706
N          -2.86564704701466   -0.71554589945994    2.28782612004177
H          -3.43888665178442   -0.80326344670861    3.11709863344240
H          -3.40539171102138   -1.02356152098678    1.48940907718795
H          -2.63083564556131    0.26512650977357    2.15093931718875
