    26
        -50.45899737  Gyration_radius:  2.47013477038 Dipole_moment: 5.011
 S          -0.27442334549160    0.42196587117825    0.94115417678530
O          -0.86007220792752    0.21214805158967   -0.40158060382880
O          -0.49262190992715    1.76276506693634    1.41012021038608
O          -1.02808862578280   -0.59256230561915    1.87381188696200
O           1.11170293691393   -0.02036115586765    0.96290369170475
H           1.10706638220430   -1.65843432758100    1.03972696188608
H          -1.94133160659112   -0.18643662822436    1.96410795033224
O           0.84179838800778   -2.59854138884439    0.88652084963550
H           0.13839548810515   -2.76010881958409    1.52081347748856
O           2.02935257871808   -1.06582069414505   -2.55950423890588
H           2.79464864539536   -1.63026459450081   -2.43361127069136
O           0.31036985416397    2.60250387769487   -1.08047434145176
H           0.16908476933526    2.72025703613988   -0.13082263061371
H          -0.28475752172737    1.87834015344404   -1.31119907022132
O           2.50150291394232    1.00621673720113   -1.10099768778575
H           2.23612424395314   -0.20475871010810   -2.07401875006915
H           1.89077433005220    1.74713223580876   -1.28358177361535
H           2.19598065056530    0.65521186368631   -0.24511907926046
O          -0.03830380379796   -1.89564453497233   -1.39602449920373
H           0.31401693893942   -2.34216533272092   -0.54243985468658
H          -0.46231167947342   -0.99095059904848   -1.03374400521317
H           0.80573076704853   -1.58955704634339   -1.94614637702564
N          -3.14990415317195    0.90204664563220    1.79573410389663
H          -2.45695189572959    1.64112096826358    1.70007702594350
H          -3.80489926244973    1.15817317193774    2.52325114795853
H          -3.65288288534173    0.82772444797968    0.92104269960744
