    26
        -50.44707821  Gyration_radius:  2.51045280399 Dipole_moment: 4.741
 S           0.79899793367334   -2.30269458528328    0.07027470805270
O          -0.55652781522563   -2.10839502659555    0.52210809301257
O           1.42290471867959   -3.53204022532385    0.38144022558936
O           0.86193194872793   -2.08009841519523   -1.46296217924219
O           1.63498315815344   -1.09491232182941    0.60899814281227
H           1.00105713364866   -0.55860970685740    1.20045709534176
H           0.63396551063084   -1.13269998546150   -1.66016696042684
O          -0.12672504829164    0.12758943476447    1.96204326473013
H          -0.65257830258307   -0.67681650270460    2.04083751160751
O           0.47827535322468    0.44960593154705   -1.96005692681984
H           0.59055907067985    0.62249227212011   -2.89651422689925
O           1.02611963368165    2.68043323014426    1.14014607511520
H           0.95927481672026    2.14456076413469    1.93607558927392
H           0.15095559935449    2.65557881436499    0.73176854244459
O           2.51286349894576    1.27801133207943   -0.61970577674024
H           2.69439784386539    0.47482649709696   -0.11655649223921
H           1.30587016185548    0.81038014576225   -1.50283821334428
H           2.11214266287551    1.91250915425225    0.01521254132515
O          -1.26784205507635    1.40746963914537   -0.03641353253312
H          -0.58708026277913    0.66134491530962    1.25450756906844
H          -0.72475932889222    1.16565390193671   -0.80404150313994
H          -2.04706420164650    0.79895705592595   -0.09124061395266
N          -2.96499562607334   -0.66218347594873   -0.17457980339622
H          -2.21680540939139   -1.32339372368251    0.03496784456146
H          -3.34086424188030   -0.91040875353884   -1.08138154062484
H          -3.69905677293371   -0.80716038613011    0.50762055649822
