    26
        -50.45899707  Gyration_radius:  2.46967312593 Dipole_moment: 5.003
 S          -0.32618406618079    0.62171465275797    0.80597682094088
O          -0.83636142014836    0.10514118628340   -0.48348203359166
O          -0.57057521221652    2.03097410725807    0.94576276366825
O          -1.13062537007440   -0.16444268318965    1.90263226870031
O           1.05660076038508    0.21358441976711    1.00265187333751
H           1.04775077436876   -1.36443445829485    1.44932071932303
H          -2.04807163030021    0.23784222856870    1.84616316323002
O           0.79112751822015   -2.31796299855312    1.49962688118406
H           0.05323769819176   -2.33986672207464    2.11467641202248
O           2.16895422012536   -1.59160965057002   -2.13463281664271
H           2.92619505217085   -2.10276558853386   -1.84239194375060
O           0.36997400717135    2.29424716858909   -1.62313357791168
H          -0.21140228248689    1.52894229900050   -1.71404900915470
H           0.17641306964806    2.62341797124050   -0.73441578297299
O           2.55925603716520    0.76320748905845   -1.16208175072927
H           2.20662618002889    0.61168010898309   -0.26666777613876
H           2.34828687582539   -0.64020852545394   -1.84718282545224
H           1.95953670622001    1.43553200746903   -1.54101945939965
O           0.03982824992158   -2.16275546785262   -0.92721319950737
H          -0.40388501638650   -1.20527847693314   -0.80368002729822
H           0.91313615443181   -1.97840983984092   -1.48580801257285
H           0.34402742504928   -2.39946998002559    0.02337269836321
N          -3.24593023573879    1.24175679786010    1.36278840692230
H          -2.54947864698568    1.95050620576367    1.14327957756420
H          -3.94633741321639    1.64666775592412    1.97061074372939
H          -3.69209944514607    0.96198998280668    0.49889590616142
