    26
        -50.45899788  Gyration_radius:  2.47058218816 Dipole_moment: 5.007
 S          -0.37705330388849    0.16833645303925    0.98267831033391
O          -0.85381394796613    0.20671196845168   -0.41778194742596
O          -0.78410881404652    1.33711061038852    1.71290837357459
O          -1.05426504347253   -1.10520570589258    1.60485500295709
O           1.04908076945673   -0.11817859817908    1.02324659834547
H           1.23907981508068   -1.72237994871363    0.74055144040962
H          -2.01339326473531   -0.82831182167849    1.70779246337217
O           1.09943663343201   -2.62646152770270    0.36540004292413
H           0.38609996200940   -3.00022636506741    0.88950013120951
O           2.28618123846684   -0.24203159361012   -2.55530471614309
H           3.10547603862665   -0.73682987308403   -2.49156836466285
O           0.05429771954159    2.79690188841053   -0.46130740872599
H          -0.43376123429451    2.07992120008479   -0.88542969130599
H          -0.15276096542059    2.68952265922932    0.47730760637871
O           2.42004297345154    1.48596003593064   -0.64769463252777
H           2.11029309955049    0.92138654268931    0.08337647063254
H           2.35912853874221    0.50443972922674   -1.87888218914335
H           1.73581357748811    2.18055138813226   -0.71544383024675
O           0.27118982850297   -1.52546226401688   -1.77485139950621
H           0.62592625316851   -2.11276645725241   -1.01244203842134
H          -0.27889901338878   -0.77531025034049   -1.26132461380801
H           1.10199527562684   -1.01604425856822   -2.17404550645570
N          -3.33398678803628    0.13527547656241    1.68862591032176
H          -3.78305066891183    0.20925359391928    0.78515138451374
H          -2.73067646378337    0.94586210549766    1.80954399866811
H          -4.04827221519112    0.14797501243570    2.40513858476165
