    26
        -50.44566007  Gyration_radius:  2.52639829659 Dipole_moment: 5.244
 S          -1.07292077683184    1.49762598719725    1.70992848794348
O          -1.63043800206076    1.34123156903259    0.38489328589270
O          -1.98809684629750    1.50634839908141    2.79047985595521
O          -0.02737883138444    0.34734706780999    1.90351973049877
O          -0.14897008158275    2.72240064700690    1.74394871879102
H           0.32933881190532    2.68533201722476    0.85920028442569
H          -0.43158170706424   -0.54963028038272    1.66865462250519
O           2.23862487357144    0.00986740786594   -0.90755380086489
H           3.18139702191015    0.16395356443965   -0.98565809715808
O          -0.93226383715845   -1.94957601561438    1.21471385687052
H          -1.63600265744896   -2.25731950033974    1.78868559580841
O           0.68459971932078    2.23601791379811   -0.62030774711910
H           1.28427163733132    1.46706577932210   -0.70660437090536
H          -0.21529244177432    1.88610825720270   -0.71029258409660
O           1.88929351812153   -1.60249593113984    1.18697468889025
H           2.12264094467013   -0.62405279006146   -0.15959772246468
H           1.72626000034766   -0.93969902711114    1.86605096315412
H           1.04879767561853   -2.06775162130281    1.07958713101137
O          -2.04310568397866   -1.01717858789271   -0.87822761690127
H          -1.36784905747466   -0.93486427659793   -1.59873754968500
H          -1.37930314605123   -1.68688472072480    0.33652631162692
H          -2.13378391774454   -0.11847283999302   -0.51871601548000
N          -0.08408261113702   -0.58862242031369   -2.69551513294282
H           0.08252134537975   -1.34082307253820   -3.35178116897189
H           0.77329921667160   -0.43752592130850   -2.17121452950725
H          -0.26997517706946    0.25159840542308   -3.22895717731911
