    26
        -50.44471994  Gyration_radius:  2.5487730098 Dipole_moment: 6.696
 S           0.26953207358520    0.16294992564602    2.52288374774592
O          -1.08894008052447    0.06012995944201    2.04461505038459
O           0.49476685088368   -0.07722865544832    3.89759919119561
O           1.14811989118834   -0.77028695749124    1.63073877542208
O           0.82389928986346    1.56531341932972    2.15984670463935
H           0.81654038899261    1.65039718713502    1.17016481616170
H           0.50046745444022   -1.33563137391070    1.06989999980742
O          -0.65910592780638   -1.91617128724385    0.30404175281052
H          -1.29996359524478   -1.53604841095673    0.92112950438037
O           1.00582650765995    1.68954078357989   -0.43945146747037
H           1.38672958503482    2.53206269942418   -0.69366838801446
O           1.29579833579929   -1.50614257188480   -2.50934063292980
H           0.43440776460402   -1.09006386577800   -2.34678342405416
H           1.41742104607679   -1.53747646859245   -3.45869498526049
O           2.74398847594450   -0.20083166783242   -0.62699163265779
H           2.35889136856368   -0.77980624201528   -1.31616654667976
H           1.74131316774835    1.00182734527533   -0.53964058856505
H           2.57073971469509   -0.63433748453750    0.21817637361299
O          -0.86393143456473   -0.01889199444281   -1.59797006449176
H          -1.74142699980885    0.24024165646481   -1.21988212811716
H          -0.25790838644120    0.66515071089105   -1.27075460044937
H          -0.71715649409216   -1.35457076292775   -0.50420232017009
N          -2.94651711933477    0.72846643753944   -0.07950544053175
H          -3.77763377629139    0.15570138715408    0.00211732488643
H          -3.24679328025203    1.69466231094132   -0.11752585900359
H          -2.40906481049456    0.61104392012316    0.77936483743645
