    26
        -50.44471962  Gyration_radius:  2.54852183699 Dipole_moment: 6.695
 S           2.06110316592670   -0.38959773752875   -1.43525064390568
O           1.11636358345128   -1.48058440573675   -1.38986234655797
O           3.03595052714882   -0.41604740735054   -2.45867024459249
O           1.23778014254346    0.93698675337476   -1.46763833612370
O           2.77555160876054   -0.28771475644679   -0.06231140387630
H           2.08670566044781   -0.09598556688069    0.62732800479260
H           0.25958306026615    0.67180900925200   -1.63055476697130
O           0.99153309785625    0.43204566284489    1.69950723853789
H           1.41161452782373    0.54484811087040    2.55411564378945
O          -1.08018737311535   -0.00706924255030   -1.74245430223719
H          -0.66843129668311   -0.86298323919221   -1.92649074201498
O          -2.16697576797157    2.27523765704825    0.60352699079168
H          -2.84753144031655    2.61436505736788    1.18562674104358
H          -2.15922594209031    1.31053164470479    0.70705325264292
O           0.50802712384525    2.71106163710773    0.60299857459332
H          -0.46921005894037    2.71935390094997    0.54636203597503
H           0.83253526186033    1.36228789638169    1.33458915049162
H           0.82863481518660    2.50897981469064   -0.28509518736572
O          -1.53310992639469   -0.41344833059319    0.88191127015561
H          -1.45694301922746   -1.38828545649047    0.72707630859163
H          -0.67954297115360   -0.17277551782008    1.27659788132958
H          -1.39470125159036   -0.06915211079437   -0.81007785936860
N          -0.81899014448726   -2.91532595019636    0.22434735669195
H          -0.03746676659936   -2.58218383941753   -0.34006147693504
H          -1.39720565020938   -3.49576106459618   -0.37085765560706
H          -0.43586099655497   -3.51059251900220    0.94828450625657
