    26
        -50.44707821  Gyration_radius:  2.51058329904 Dipole_moment: 4.740
 S          -2.03930435174880    1.27668233550268   -0.40049678168892
O          -1.76033484856137    0.24282461545701   -1.36626654498338
O          -3.00849683152056    2.24707970223466   -0.74152997884680
O          -2.43569248112405    0.62111493613834    0.94755831250212
O          -0.67137415420213    1.94820720626951   -0.04573291342966
H           0.01744329503755    1.52173764924396   -0.66423511361138
H          -1.65809112208380    0.10997875110006    1.29747509308081
O           0.88305522974988    0.70207589576464   -1.61470560925467
H           0.14652219456054    0.47012542268526   -2.19210080334674
O          -0.33410556888658   -0.53372498936641    1.96903579297917
H          -0.53846090054169   -0.87921915972270    2.83986145232449
O           2.96616340883357    0.74188911348024    0.43069296175201
H           2.78647808281002    1.15414042789262   -0.41951300743548
H           2.73102140949692   -0.18936218692819    0.32656482816704
O           1.07038539872573    1.61599662265883    2.13798082552432
H           1.87992212909295    1.38804011085090    1.62899163647610
H           0.54279615931710    2.18252212901319    1.56187382434733
H           0.22458290099057    0.29706801386320    2.11673904189977
O           1.20469908446052   -1.45610347001025   -0.13987811728142
H           0.71030160840214   -1.25583203432821    0.67135675855627
H           0.58128416312523   -2.01277950088079   -0.67088623628059
H           1.06741678824634   -0.12998694542830   -1.09430497051593
N          -0.84312621585549   -2.49824395961833   -1.51931350575736
H          -1.44949107971279   -3.15731255074038   -1.04690305620315
H          -0.74853989574353   -2.80782907764376   -2.47875245388201
H          -1.32505440279111   -1.59908905748436   -1.53351144529763
