    26
        -50.44471991  Gyration_radius:  2.54889643841 Dipole_moment: 6.697
 S          -2.18017782576671    1.14032284376247   -0.64128474021714
O          -1.22068288000409    0.98143425998906   -1.70854837176885
O          -3.50985691327256    1.45474144368740   -1.00387334733346
O          -2.11913918795487   -0.15127766609416    0.23437147920629
O          -1.65926488471679    2.21851256314965    0.34459298796230
H          -0.79884913690276    1.89679785544143    0.72276017324313
H          -1.55092916936761   -0.83106458766329   -0.28399641977293
O          -0.59286884912794   -1.56003876759902   -1.18877053328718
H          -0.70716206083512   -0.90644468913965   -1.89289456259417
O           0.48070407796731    1.26533500467869    1.49200917700211
H           0.80240624765920    1.89358469213199    2.14116741356914
O           1.04909803557186   -2.50481142425358    1.69484372829009
H           1.78229277692648   -2.92799661591259    2.14255307878116
H           1.42382165918792   -1.97948660823289    0.97019662416688
O          -0.73657032325825   -0.69510183446270    2.63443761979705
H          -1.51119426265251   -0.73256794858565    2.05930854428922
H          -0.17940654607638   -1.46347703422939    2.39470086173549
H           0.01962666656521    0.52951520087132    2.01145360572703
O           1.71037757715528   -0.57998065381068   -0.19366340761092
H           0.29368458233406   -1.36808086627115   -0.80220587673715
H           1.86068406673454   -0.10859652569065   -1.05116265949643
H           1.39483948505851    0.11714289579717    0.40356598128985
N           1.58913364866485    0.90994756749275   -2.42212575312324
H           0.59588094748563    1.09758002918817   -2.28587717541226
H           1.69709246062905    0.50115217300687   -3.34232056836767
H           2.06645980808457    1.80285867277883   -2.42923783933998
