    26
        -50.44594583  Gyration_radius:  2.42125566053 Dipole_moment: 3.095
 S           0.52773081667084   -1.87275699147905    0.13033028331568
O           1.68072121806676   -1.27913406758981    0.76628438357720
O           0.56694076330941   -3.25701794278787   -0.15105183709030
O          -0.71943419231545   -1.58726202055957    1.01226791779852
O           0.23342178685006   -1.10013080620789   -1.17580253841502
H           0.48310403596052   -0.11788963830085   -1.06862404149748
H          -0.71394654354588   -0.65836675759743    1.39284443793037
O          -0.74989696957698    0.77664817007374    2.06263704705605
H          -0.88968291037011    0.69160079747574    3.00738952742688
O           0.63237737753995    1.39466102623634   -0.89402901212770
H           0.94778152724389    1.73317971358222   -1.73335121123798
O           3.06457041941845   -0.10119459475788   -1.29276498026264
H           2.68277813165443   -0.54484403734411   -0.52009414212736
H           3.69107937703455   -0.71857955310642   -1.67202812807922
O           1.74567488513317    1.26673724642637    1.63468571992507
H           1.97014441147028    0.32861596204480    1.50429731856987
H           1.72670083437326    1.62930637740523    0.73731841730094
H           0.20818455581653    1.07031415413442    1.94369060022922
O          -1.85241431298133    1.79625530356307   -0.33247230894184
H          -1.74363873417385    1.65812064692825    0.61746015542698
H          -0.32480342116919    1.67733906390790   -0.76214296880701
H          -2.27036450846574    0.96564153706912   -0.66820282745552
N          -2.70818049109339   -0.66673519651000   -1.08334211454590
H          -2.81809709324935   -1.20615756769487   -0.23240815309632
H          -1.87136017011196   -1.01580144675586   -1.53916155516519
H          -3.49939078347438   -0.86254938813388   -1.68372996971902
