    26
        -50.45859670  Gyration_radius:  2.45188159893 Dipole_moment: 8.075
 S          -1.61282651718803   -0.18893206969333    1.23016665188800
O          -1.96335523457274   -0.54292729539041   -0.14320454139686
O          -1.55788174898202   -1.30986009573847    2.12461172211483
O          -0.12449194947406    0.40454667422634    1.12953875071450
O          -2.38030270552215    0.96144225069765    1.70009001131265
H          -1.76782451523809    2.08224530510411    1.02813970257290
H           0.43952896120766   -0.39710135454580    1.18087346009078
O           0.84737250354504   -2.04964526176346    1.26327963503546
H           0.04417977925284   -2.09645779969402    1.81332098854781
O           1.51937245610336   -0.00072655015639   -1.85921400888504
H           2.11874026251645    0.14116429639245   -2.59309452218801
O          -0.90976577960329    1.30927069089344   -1.64668333576258
H          -0.01315487961009    0.94443660596026   -1.75075688212975
H          -1.42140103521219    0.58268891576568   -1.21228302622470
O           3.03644482203638   -0.82166891189189    0.21053806424198
H           3.68773756025881   -1.49550065667470    0.00619298308235
H           2.07541294628177   -0.19835322902152   -1.07222331481251
H           2.36513825647424   -1.25996119527251    0.76379968486542
O          -0.14187866692487   -2.20509143851503   -1.17274759825142
H          -0.95357641537232   -1.74415025423824   -0.88120808564565
H           0.37681378815698   -1.53420897813047   -1.63967708241789
H           0.54191585900106   -2.32013728624459    0.35929603417957
N          -1.18914018800862    2.81059728136177    0.43783078486070
H          -0.30476571010502    2.95892922274033    0.91442944823823
H          -1.69664074555569    3.67996351967859    0.31076868630422
H          -1.01565108354854    2.28943763404934   -0.50178422027997
