    26
        -50.45564918  Gyration_radius:  2.41803051057 Dipole_moment: 3.085
 S           0.87809636321791    1.40386945770074   -0.69311714058916
O           0.74530853969569    0.06174403877221   -1.20691302805050
O           0.78787432806505    2.44364991654692   -1.66058833688574
O          -0.14857734137704    1.59782767348820    0.43717843608126
O           2.21897161894905    1.51534515681748    0.06918974873187
H           2.28504969858423    0.73523608768209    0.68932884257518
H          -1.09566350655850    1.16790493044196    0.12210039996125
O          -1.43865002277003   -1.73243620682693    1.08294575307356
H          -2.13392367205020   -2.19537928543092    1.55252381696623
O           2.34568443835701   -0.58358549112640    1.62016204195168
H           3.25869016047554   -0.85129725740815    1.73927817803170
O          -2.19520272314804    0.47862008775099   -0.34600857226075
H          -2.02025641555240    0.54351310963510   -1.33346507471623
H          -1.99756361826577   -0.43222555243478   -0.04946013153607
O           1.09343221964308   -2.22312743241251    0.06966935179434
H           1.90849232506749   -1.29824546144937    1.05505118105904
H           0.19254604729680   -2.32541450844531    0.41677084250494
H           1.00759816755728   -1.51507585844916   -0.59895854818996
O          -0.17016042534862   -0.03569665910055    2.67841304678945
H          -0.25851660485667    0.76435247440681    2.14019217962401
H          -1.01356118062236   -1.12634282896104    1.74430532043028
H           0.76763199807987   -0.26837070648661    2.62746762783483
N          -1.41637496955990    0.90888626187261   -2.82432448328608
H          -1.98145095611732    1.23710255348877   -3.59816520176886
H          -0.88828360112444    0.10200709880090   -3.13375004551783
H          -0.73119087750149    1.62713839114816   -2.59982620474617
