    26
        -50.44394644  Gyration_radius:  2.49354236469 Dipole_moment: 6.144
 S          -1.11260410441027   -1.87803954338025    0.34877037558052
O          -0.43529904558855   -1.82097191317629   -0.92733177325850
O          -0.93232989464773   -3.06781323915317    1.10160881164466
O          -0.60967622791129   -0.64134573413851    1.18377076860372
O          -2.57888837791453   -1.52242548831344    0.17502338730057
H          -2.57266346438213   -0.59100314342649   -0.34843826683434
H           0.36381107363352   -0.73778222315088    1.33570339888894
O           1.96974046347618   -0.62176569750091    1.67254429817594
H           2.21323433822632   -1.02550772438042    2.50759083197189
O          -0.02006815766060    2.28778661549754   -0.35971257806418
H           0.29170063181518    3.10989993963469   -0.74159095333741
O           2.42580434890964   -1.39855779807866   -1.02551295198343
H           1.62128869830814   -1.92730004262657   -1.10165621351167
H           2.49508351362196   -1.16724555146860   -0.09101893435165
O           1.06191201862758    1.80662622187178    2.06043534721247
H           0.29402886758451    1.62347812542771    2.60602503603630
H           1.84082263621434    0.34917171362129    1.83878596190047
H           0.69728853924194    2.01423694046415    1.17147912015537
O           0.61229830241452    0.37505030952402   -2.01244843145385
H           1.52616748706171    0.05691848133429   -1.91149756193879
H           0.09554008873734   -0.40233576529922   -1.71837414028291
H           0.28492455453651    1.56512418447352   -0.97930988368891
N          -2.42577881064443    0.68106083566851   -1.06502955107557
H          -2.03737614549343    0.48382172378615   -1.97939596029085
H          -1.76703315437118    1.27447844150076   -0.56483039744531
H          -3.30192818953914    1.17444033135374   -1.17558974992216
