    26
        -50.45859665  Gyration_radius:  2.45219454376 Dipole_moment: 8.071
 S          -1.65561890233455    0.80348292813507    0.87472115412041
O          -1.78912764198480    0.79377038587888   -0.58006843002505
O          -2.50082572936103   -0.14396185679565    1.54363578557320
O          -0.13876765004382    0.35290492026467    1.14633578981316
O          -1.68096947105424    2.16357358137351    1.40653957915485
H          -0.38027856005192    2.69006013290910    1.06914318588227
H          -0.19357912564762   -0.62706393174597    1.14670326298547
O          -0.87915746230010   -2.17952896753264    0.99406681880393
H          -1.66012117854595   -1.74061256339841    1.37787055713286
O           1.62854376841791   -0.87173815580692   -1.53578862914177
H           2.35491828834812   -1.10346980530150   -2.11601719781668
O           0.49106821201312    1.65201971500126   -1.51010958527516
H          -0.43976308669410    1.38186774445039   -1.31273224800824
H           0.98797256198344    0.81492619783712   -1.52228188876808
O          -1.12050252968613   -1.59922643753240   -1.56352183652364
H          -1.54239884202268   -0.74621501409347   -1.33845802401101
H          -0.20921640250618   -1.37615483404738   -1.80222815855915
H          -1.04727408243405   -2.16902899964058    0.01664894037577
O           1.78780331638628   -2.53227499330855    0.57981236661872
H           0.87610297166333   -2.48056931774770    0.91895112109639
H           1.93744817012374   -3.45646396470045    0.37144646923451
H           1.74123509864657   -1.40072802040557   -0.71413570169139
N           0.64214626343254    2.92582444667850    0.73317028060676
H           0.70270314704606    2.44420187870266   -0.24091083321523
H           1.28773633687833    2.47760714208662    1.37631634763043
H           0.79992250971277    3.92679778874741    0.68089088399021
