    26
        -50.45564914  Gyration_radius:  2.41811123511 Dipole_moment: 3.086
 S           0.00677233288811   -0.92571698442678    1.53854144139721
O           0.10603374337166    0.49824720860228    1.32603855092641
O          -0.80949190717203   -1.32805854285556    2.63259210031916
O          -0.45070441844396   -1.58509840414057    0.22474839583174
O           1.43055082473879   -1.50496025161424    1.70841925523380
H           1.99647365656719   -1.14892848789442    0.96655710068404
H          -1.25106605742397   -0.98789578539578   -0.20244574486874
O          -0.21475743512308    1.05278508576266   -2.25568502335117
H          -0.45957789334438    1.26654306191365   -3.15714843780150
O           2.86013485550514   -0.48440623619943   -0.22633098671249
H           3.77099121961317   -0.38059517918064    0.05465307586342
O          -2.16376881487662   -0.07794615218955   -0.69749757410612
H          -1.58131791049364    0.54273997061415   -1.17930308959263
H          -2.45130679555988    0.35060999953877    0.16457425774818
O           1.66517872561130    1.79906230483148   -0.36141265301793
H           1.07875747996394    1.77853499138245   -1.13486251184168
H           1.08555056191302    1.53159762282149    0.37896047944513
H           2.47832208053430    0.44734995264282   -0.31145918574227
O           0.99586018925537   -1.30332464832599   -2.12465136886124
H           0.23241138794292    0.16730218144829   -2.29256336555280
H           1.84471499964325   -1.14605016871719   -1.68773977496901
H           0.43932128103426   -1.71539655163585   -1.44786593353842
N          -2.68095248306159    0.74363094018407    1.75060806947832
H          -3.59032229355603    0.89411571707586    2.17065275321687
H          -2.10383380028008    1.55437976483316    1.93864269683506
H          -2.23397350924246   -0.03852140906141    2.22397748295902
