    26
        -50.44394643  Gyration_radius:  2.49355719946 Dipole_moment: 6.144
 S          -0.22873015237961   -0.51754728505842    2.13692617452771
O           0.71249662418704   -1.35268018479964    1.42486652811375
O           0.21058695530996    0.00024734421588    3.38337863945792
O          -0.60096098437704    0.66957337240448    1.17161681081486
O          -1.56957523743061   -1.22237501687045    2.24588249336919
H          -1.80957720702666   -1.50637948274870    1.24431370396551
H           0.21708025951100    1.19667569307549    0.98972598656664
O          -0.90468823940826    0.10907444203505   -2.12909173224866
H          -0.88197642094132    0.05866917330564   -3.08605044743145
O           1.42069492197156    2.19383310440319    0.47742956174163
H           1.54585808421383    2.95996418546010    1.04041511716562
O           2.97737412703219   -0.15389163234441    0.08031457883231
H           2.55185400673729   -0.66150002122768    0.78302761059332
H           2.64650982528891    0.74773337279342    0.17654756482088
O           0.97378239240798   -1.45395372764800   -1.22460326962147
H           0.78556163683574   -1.55935025083064   -0.26999803846305
H          -0.14071209242624   -0.44942659587482   -1.80728330167343
H           1.85420401096049   -1.04014845438572   -1.20976921333005
O          -0.52442610036740    2.61917920622140   -1.22763861159901
H          -0.65000142784728    1.71667652613099   -1.59655318320124
H          -1.26220557612405    2.74578608788540   -0.62723249302932
H           0.83736845322993    2.47219616379265   -0.27704013847160
N          -2.01965421969348   -1.83728358509370   -0.16995127141972
H          -1.87649565191933   -1.00266528593952   -0.73490786080301
H          -2.94130351289584   -2.21118095902860   -0.35450726474609
H          -1.32306448491606   -2.52122618983181   -0.43981795394721
