    26
        -50.45564916  Gyration_radius:  2.41800913332 Dipole_moment: 3.087
 S           0.88524201421330   -1.39009112930424   -0.71242711365122
O          -0.44600225196145   -0.91041408251097   -0.99643522820272
O           1.64398482908677   -1.80149315853949   -1.84393333962316
O           1.62853788405797   -0.31550059080169    0.10143575900843
O           0.79009716077094   -2.55233863122445    0.30329993738081
H           0.19619328524959   -2.25801640246278    1.05043487989006
H           1.42517954255241    0.65633599718727   -0.34091654233125
O          -0.93527985238624    2.08259872487047    1.01628783109433
H          -1.05530455279208    2.95659456550237    1.39037915351809
O          -0.82112093455147   -1.73140180964013    2.18926984524687
H          -1.30214303654511   -2.47393145990384    2.55904425318421
O           0.98807569838089    1.83033506020966   -0.91807036045304
H           0.76022299350815    1.48691659006371   -1.83479855748132
H           0.15828489662080    1.99414773455728   -0.42696125038934
O          -2.35669587544625   -0.27599299855062    0.71154299610441
H          -1.49488455243838   -1.18028799470684    1.67579495278483
H          -2.10989450292709    0.65184917989162    0.85596220946553
H          -1.83650602037133   -0.53688208205614   -0.07404677669907
O           0.65892466555451    0.60153238910158    2.53212590109062
H           0.16298946889423   -0.20326295629277    2.73845683378402
H           1.29684285224070    0.33454120144152    1.85433623055573
H          -0.33553246139926    1.59452160521008    1.63886375976328
N           0.56704113606845    0.56513420508154   -3.18827551261839
H           1.09156260656749   -0.27225412466726   -2.94444343938960
H           0.84694907218867    0.85856778657470   -4.11639333331968
H          -0.40676408509255    0.28879238096708   -3.22053307870580
