    26
        -50.44394646  Gyration_radius:  2.4934424717 Dipole_moment: 6.145
 S          -1.11061860725509   -1.81709047629030    0.59174307712652
O          -0.25921655346403   -1.99486097511542   -0.56321715331631
O          -1.01459599357506   -2.81123729206520    1.60032083526794
O          -0.75849701721260   -0.40837312239923    1.20102927934569
O          -2.54418246841543   -1.58134188141421    0.14917086567919
H          -2.48285831198324   -0.78189506502555   -0.55709324551453
H           0.18490079792826   -0.42069426474349    1.50068701906690
O           1.72335574394982   -0.15315637905341    2.01892767974858
H           1.85356861543204   -0.35849836228581    2.94653533694375
O          -0.01681763375846    2.15628406173108   -0.84501264636497
H           0.32841055847147    2.89460247129123   -1.34958699839187
O           2.57606067833455   -1.45683912438768   -0.36090787773492
H           2.50620802354908   -1.03061187611808    0.50224101597648
H           1.80152321237299   -2.02952226184589   -0.42959862431762
O           0.71559779658822    2.25158185499557    1.74631624154052
H           1.55074526322934    0.82289367748210    1.95243102833674
H           0.47865196922659    2.24847675077762    0.79234618468685
H          -0.11871722827559    2.14654805719471    2.20861770583499
O           0.88712216003271   -0.02608025557471   -1.94491067346894
H           1.78330362201614   -0.26873560856124   -1.65411379844875
H           0.34970881562774   -0.74948711337050   -1.56328505160061
H           0.38956011519964    1.33623259487065   -1.24701256443852
N          -2.26210905830520    0.31632323292437   -1.50476641045599
H          -3.12373941964033    0.73016355402685   -1.83585573350102
H          -1.74375251281552   -0.04928240291387   -2.29434006091813
H          -1.69361254725756    1.03460022581456   -1.06066545110412
