    26
        -50.44394650  Gyration_radius:  2.49345578705 Dipole_moment: 6.144
 S          -1.06286665288421   -1.18676650510850    1.53230244128658
O          -1.92899429369766   -0.36423632904175    0.71761483582025
O          -1.46317569654634   -2.53737543038505    1.70662167247207
O           0.36385383655436   -1.13857820269599    0.86756946866793
O          -0.78053146565952   -0.49366546468775    2.85385857322718
H          -0.43590505100346    0.48046472509642    2.58187090622585
H           0.30473014556915   -1.53815868200905   -0.03615222132221
O           0.46878731125953   -2.08683307625169   -1.57855112329817
H           0.70073347667901   -3.01591731500049   -1.62936128784694
O           1.46222310636669    1.71668218201159   -0.52744006481214
H           1.79092071194793    2.44682954482091   -1.05445645865076
O          -1.93954511154562   -0.68816226543578   -2.15739798113880
H          -1.15421573344199   -1.24919481529406   -2.16806735784101
H          -2.31016152823994   -0.77951958292670   -1.27028416340356
O          -1.11225587211890    1.58346883303178   -0.90676568350558
H           0.48664041051588    1.64744315784939   -0.73427045068795
H          -1.36453217554201    1.09554038744921   -1.70979219944722
H          -1.44795208484716    0.99476771255584   -0.20068612542055
O           2.61213460473732   -0.62784876904417   -1.19109136562858
H           1.31182121920591   -1.56608605858075   -1.64914195876727
H           2.20969592722431    0.24521075080568   -0.98598859248067
H           2.90782689538638   -0.96897723654737   -0.34432897913765
N           0.02080562085146    1.78008258622708    2.07655103417010
H          -0.76754125640938    2.24237236813434    1.64001164541571
H           0.73279967069438    1.63219812703697    1.36413949285304
H           0.39470399489147    2.37625932789480    2.80323593325353
