    26
        -50.44600001  Gyration_radius:  2.48286626835 Dipole_moment: 3.212
 S          -1.91747520670830    0.88322476918027    0.34403104100318
O          -0.99252980075529    1.35867396985285   -0.65340639460240
O          -3.06470819610418    1.66683747898300    0.60199654475390
O          -2.32967693947037   -0.56844277931797   -0.05169972417589
O          -1.15815778027694    0.67448740417623    1.67736151785357
H          -0.37314149297411    0.05874351853835    1.54698615347739
H          -1.76266945426793   -0.89400882249495   -0.79995984557386
O           0.83494393412085   -0.92751326899002    1.43736844601120
H           1.25639721233794   -1.00373041643809    2.29541197487714
O          -0.88433613709729   -1.78989707851366   -1.85690486718490
H          -1.44146459650145   -2.29756474083068   -2.44968574399017
O           0.99363326443492    0.30072146953981   -2.20726148540286
H           0.30919669477839    0.86395115368045   -1.81241621233114
H           0.56146269166542   -0.55402857444460   -2.32097731913761
O           2.43051255601956    0.42131359110608    0.04285414242369
H           2.15141317344310    1.32456881018626    0.32794061577886
H           1.52209237025754   -0.42016191092152    0.83745664037800
H           2.08710705323788    0.33799735362270   -0.87580502065897
O          -0.37002817064929   -3.09259442581664    0.36025280783090
H           0.17700996497638   -2.39450096355265    0.77366878488129
H          -1.21372837875514   -3.07194296981690    0.81797907035414
H          -0.58462062548899   -2.40579179283295   -1.13877092516573
N           1.14860107186347    2.69660345238025    0.75848439205575
H           0.33267019138629    2.41141940026943    0.21939768074745
H           1.44502063987045    3.59982723693359    0.41019073408067
H           0.84247596077150    2.82180813560687    1.71550698121386
