    26
        -50.46439125  Gyration_radius:  2.39576210304 Dipole_moment: 3.884
 S           0.16513307625212    0.38701787719943    1.75372821129520
O           1.08242492394451    0.85214012368035    0.71451656939829
O          -0.21248301702767    1.45103522486224    2.65352229320517
O          -1.03568418753667   -0.22070713409096    1.14032804754824
O           0.88226171535714   -0.74575095140371    2.53797923572431
H           1.06070811177676   -1.45342697637278    1.86542926095920
H          -1.92402620511572    1.07335543238652    0.83440859784995
O           1.43975484310537   -2.49338645850306    0.63400204804422
H           2.19722551433042   -3.00907568836993    0.91659902565875
O          -0.19977895742108   -0.20685356516511   -2.54328471214756
H          -0.50634267924947   -0.44993840000658   -3.41736764295509
O          -0.19388032436555    2.18847138091846   -1.15938663180470
H          -0.29986026159659    1.45176680718195   -1.78893415167855
H           0.45219202350794    1.83467847248294   -0.50738061117549
O           2.17602429363470   -0.70631238652950   -1.10945967371089
H           1.95633192446314   -0.02202734825213   -0.44379958472747
H           1.77403185846007   -1.87555947500563   -0.08192690835934
H           1.51843408996137   -0.57124329152676   -1.80938399430191
O          -0.99728973029050   -2.00611826519005   -0.79492971080384
H          -0.55747225701047   -0.89381843987878   -1.91928337223490
H          -0.27565798470547   -2.57501286169829   -0.50417200675121
H          -1.12216797040021   -1.38545261320143   -0.04518898685250
N          -1.91100771283143    2.13306306890168    0.77502798242062
H          -1.32394502940255    2.33106479355031    1.61602043889528
H          -2.82078683311313    2.58131688449630    0.79441615222848
H          -1.32413920481783    2.33077375953013   -0.11147987576759
