    26
        -50.45564920  Gyration_radius:  2.41803350315 Dipole_moment: 3.087
 S          -0.58540601777862   -0.56076827352885    1.60220183671587
O           0.27288396101052    0.55370403858336    1.27941436079763
O          -1.55646706260752   -0.31544297851139    2.61313779600338
O          -1.24151101573736   -1.06413736457704    0.30377137656495
O           0.29435436856577   -1.76714573774851    2.00485051210558
H           1.00756962906806   -1.87059765175090    1.31336259857878
H          -1.56938722690893   -0.20464146053465   -0.27421032225479
O           2.16436673934956   -1.93525278145660    0.18778294628079
H           2.96976705170041   -2.28442610006397    0.57361688132208
O           0.52332516790005    0.67403651665566   -2.34841681002974
H           0.48747710887430    0.85279097271982   -3.28916003645155
O          -1.82064259978754    0.96581721719890   -0.96106943750072
H          -0.96767818093731    1.11398961871973   -1.41615888971164
H          -1.88807381501808    1.59976503385644   -0.18426375810442
O           0.27398800654978   -1.91991922818238   -1.85569999071615
H           0.42838900029032   -0.30912806868997   -2.24932667173757
H           1.04594125161244   -2.16912897507470   -1.32825780036912
H          -0.45775898747750   -1.87839619762567   -1.22294145777827
O           2.38806678474252    0.58897432730965   -0.30034591810465
H           1.71043558286494    0.77368286611988    0.37969782661567
H           2.34655222273200   -0.96482216407400   -0.02751314667072
H           1.93130629024973    0.76766559839002   -1.13819772916100
N          -1.97068993398569    2.27700224563484    1.31759928627438
H          -2.68224375377983    2.93934261796503    1.60170755807906
H          -1.06234373739673    2.68306083458321    1.50650235227910
H          -2.04222081406662    1.45397507406538    1.91191665695386
