    26
        -50.46439135  Gyration_radius:  2.39556273389 Dipole_moment: 3.889
 S           0.46176092612127   -0.11658628465948    1.73947565704011
O           1.41203548911725    0.07388007155895    0.64475037171897
O           0.72019160371658    0.78294018220473    2.83870142695774
O          -0.92317080626153    0.05290954318717    1.24882752456173
O           0.58488053490621   -1.59002968173338    2.21523715089946
H           0.34254224775566   -2.13826468368084    1.42418775205736
H          -1.08240230965435    1.64438403739607    1.29252674808216
O           0.07072950477741   -2.94709579056563    0.00565090542682
H           0.49537514839398   -3.80384022830881    0.07770742568614
O          -0.46044870463722    0.45493294657633   -2.47556511650653
H          -0.91110364621046    0.57876281151487   -3.31142106118952
O           0.82326646391346    2.21366703424762   -0.77017465949159
H           0.32346135222183    1.76332012317397   -1.47578598193000
H           1.25826543452954    1.47027289647326   -0.29496395026063
O           1.46112289037245   -1.38883150450346   -1.54795502794368
H           0.90618400869919   -0.81730141863151   -2.10096697278037
H           1.65469314165812   -0.83968297867186   -0.76009047292462
H           0.61235544656864   -2.42168835934363   -0.65508131999652
O          -1.90967732290531   -1.08711033891043   -0.90992663217694
H          -1.65808112749868   -0.65505475076346   -0.06549255315899
H          -1.06279239528667   -0.10031387810523   -1.91141482604696
H          -1.54187287219830   -1.97454461831939   -0.83216189953905
N          -0.55481807152792    2.55987626959595    1.39163813657020
H          -0.01212935794942    2.64258680208066    0.45981775290988
H           0.11261239703950    2.27676114268999    2.14367521502587
H          -1.12297998542925    3.36605065534304    1.62880437676651
