    26
        -50.44599995  Gyration_radius:  2.48303812172 Dipole_moment: 3.219
 S          -1.62770292306912   -1.25563658970811    0.59179156313933
O          -0.81750688911578   -1.50426884509924   -0.57369303321083
O          -2.78616837210347   -2.04571663713344    0.76669574425242
O          -0.70049816693805   -1.36859017504307    1.84121135518473
O          -2.04603527723402    0.23518718459481    0.60641656659294
H          -1.23740603254720    0.83207260304365    0.55809650064810
H           0.25010626220165   -1.43238482238340    1.55896549713326
O          -0.03124373090867    1.82613688436950    0.53419127875811
H          -0.36540571981561    2.72499668298262    0.54068886888090
O           1.88381945335397   -1.34436773593382    1.44115374837510
H           2.32122659853626   -1.96991271270809    2.02157571486978
O           1.75163206153927   -1.00595599787279   -1.36732437878343
H           0.84366446395423   -1.33602451258340   -1.27702548497944
H           2.13087384487590   -1.10951436942380   -0.48655498207404
O           1.40642127148648    0.93754036666015    2.64196922754683
H           1.90384354116616   -0.46187532017617    1.89473701719967
H           0.97115812688001    1.37251295921529    1.88116646506603
H           0.70275347824553    0.71255537534142    3.25514174893200
O           0.83873514318184    1.46897642693714   -1.79493075986639
H           0.38608676299647    1.69459165177124   -0.41357233172550
H           1.34283365250148    0.62510010687307   -1.74367432854248
H          -0.00969984843955    1.22158304326883   -2.23535900011641
N          -1.56250743075512    0.47162612133979   -2.55099059736292
H          -2.41485551291774    0.91201000656045   -2.22722695151228
H          -1.41024964202828   -0.34884542656255   -1.96676944500915
H          -1.72387510432931    0.14820373174277   -3.49668000340118
