    26
        -50.45564916  Gyration_radius:  2.41794749363 Dipole_moment: 3.086
 S          -0.84029235064040   -0.58437211597741    1.47461625784241
O           0.57017079342682   -0.38878480858368    1.23956470914673
O          -1.31086790203416   -0.18278129101860    2.75624834546093
O          -1.62430615662253    0.10926889429229    0.34597323784781
O          -1.18381140700780   -2.07308028766650    1.23526493868199
H          -0.78007527007689   -2.34468149986894    0.36305347091157
H          -1.17711579311894    1.08248475305765    0.16131098339967
O          -0.04765086066700   -2.72295405902495   -1.02612266699558
H           0.20834057409332   -3.64694136394477   -1.01397827121610
O           0.89997117349011    1.00199530760379   -2.10436384948234
H           1.02977785798419    1.52060075693421   -2.89961543907895
O          -0.44259794336558    2.22966670972888   -0.05644458969218
H           0.23711463774885    1.91222006435737   -0.68406230438159
H          -0.02373829924873    2.33031503695722    0.85154280934275
O           2.01554205843768   -1.18614954571148   -0.82103320912335
H           0.80902595341008   -2.18752379088232   -1.00138209834234
H           1.86878682300606   -0.41869660094364   -1.39722041687220
H           1.69694235775663   -0.88663502656177    0.05333133703451
O          -1.23285839399066   -0.55978696613314   -2.31656506497376
H           0.09296150888107    0.44650704858684   -2.26444430591952
H          -0.92647551892614   -1.46011279310539   -2.13846269318775
H          -1.69300259837507   -0.28828078794951   -1.50898130663769
N           0.40224084259696    2.16955763200490    2.43672644557423
H           1.30128287991773    1.70364862840217    2.45358239297176
H          -0.27730373287332    1.48683658693304    2.76509374725964
H           0.42793876617537    2.93767950851861    3.09636754042753
