    26
        -50.43598126  Gyration_radius:  2.48672104393 Dipole_moment: 6.889
 S           0.75865886914481   -0.20882651263900    2.03589532710483
O          -0.52424977137981   -0.72532109396752    1.64087083167789
O           1.45785849399836   -0.91725408170890    3.04271614502071
O           1.63812636742980   -0.12782969802360    0.73127682322493
O           0.64753681244718    1.28216440412209    2.38528949350888
H           0.16426782510953    1.69584930092676    1.62186291601398
H           1.58107545444374   -1.02198678845680    0.28202936731282
O           1.34896294960053   -2.34848253906955   -0.55913421295586
H           1.40087631456506   -3.12195049804632    0.00508220201464
O          -0.29861681813960    0.76297342144330   -1.97723477946122
H          -0.58083118402898    1.06590617621997   -2.84181772514384
O          -0.41401948123264    2.31532340995237    0.24385474237013
H          -0.41073565137364    1.71448585067362   -0.53101475354331
H           0.10531492066664    3.08562901854796    0.00420187824665
O           2.20507894800870   -0.10509609746493   -2.05971519318824
H           0.64125272922545    0.46371648424016   -2.07042012906624
H           2.56037606193953    0.24777800047355   -1.23738822539963
H           2.11606031817223   -1.05592878386321   -1.91289755085072
O          -1.11599242119366   -1.62383750225715   -0.80377399248200
H          -1.14715049177232   -1.36509584639800    0.13693356635525
H          -1.03820709013404   -0.78825048743085   -1.29208866060068
H           0.36993951159784   -2.19905315612636   -0.74707217873090
N          -3.10158689156969    0.81312989538596    1.11891010230527
H          -2.49677953372218    0.19312195865961    1.64672538789743
H          -2.54659679592122    1.62865866256399    0.88714721765033
H          -3.32061942588116    0.34017651224375    0.24976138071346
