    26
        -50.43598136  Gyration_radius:  2.48608494819 Dipole_moment: 6.878
 S           0.83441962363669    0.04524820745311    2.01956803529221
O          -0.45390339539544   -0.52840821079119    1.73731296398040
O           1.57970815007424   -0.52976026330433    3.07709519861457
O           1.66511384358410   -0.02140734834443    0.68249523020501
O           0.71350795075114    1.56609798416909    2.19252914102337
H           0.19830842390094    1.88061327362653    1.40319938097794
H           1.60376931684012   -0.96333134002798    0.34528715097924
O           1.36012845393602   -2.38297625410681   -0.32248591178322
H           1.44276542225024   -3.08295568883152    0.32752352606044
O          -0.38007695967356    0.51983598515925   -2.03901946352577
H          -0.69736897767696    0.71562759669865   -2.92213377674137
O          -0.43714443830893    2.32541339115598   -0.01643813441222
H           0.06116211962189    3.06759412577041   -0.36500559971468
H          -0.45238517790158    1.63663147298117   -0.71421064146915
O           2.13069638257117   -0.32711564707573   -2.11063151894275
H           2.06040771390595   -1.25441298843021   -1.84860379140664
H           0.55999139724462    0.22044026547247   -2.13104546183676
H           2.51007120325335    0.12487748650627   -1.34984341323070
O          -1.12189091466072   -1.71672647015101   -0.55978389295171
H          -1.07277010480923   -0.94467362097461   -1.14652567075701
H           0.37297203365450   -2.26661954731391   -0.49021405250832
H          -1.12268997434406   -1.34809452107913    0.34407147143209
N          -3.07177517828897    0.89917975971864    1.11110881678695
H          -3.30203898181889    0.31849775862492    0.31298414371774
H          -2.44412206398328    0.35865029625638    1.69642470154936
H          -2.53685586836271    1.68777429684533    0.76634154866033
