    26
        -50.44388480  Gyration_radius:  2.44573425014 Dipole_moment: 3.518
 S           0.43883603281209    1.26856646359048    0.90225881292579
O           1.40191437838829    1.08948555662027   -0.15009493392903
O           0.42137082545221    2.51561387437739    1.56940655917165
O          -0.99987476309009    0.98066712590821    0.37514617922237
O           0.65487578501783    0.09914989855103    1.90309506924056
H           1.09886596247090   -0.62539508052551    1.32751736254633
H          -1.26832447996714    0.02250229120715    0.40988614359383
O          -1.83611974729776   -1.47845810422087    0.59130531869368
H          -2.73404103029235   -1.46997464035172    0.92789591286926
O           1.68464390172119   -1.64752272806016    0.38285935132225
H           2.39114769582764   -1.13162003620090   -0.01598263619179
O           0.21669618946657    0.58803705951377   -2.51907092196411
H           0.80162849539797    0.80402454224604   -1.77396141545974
H          -0.32693572894507    1.37903953103300   -2.61519517787103
O          -0.19815372511341   -2.57447090410514    2.35707277139213
H           0.07067703211847   -1.79996404812517    2.86264991438929
H          -1.28077020843297   -1.95577424531152    1.26170365504014
H           0.56599777596293   -2.82155325104453    1.82302948455801
O          -0.05838149751753   -1.88305826037631   -1.51858645631378
H          -0.91394778067855   -1.86554160843654   -1.07416202575316
H           0.00049538351033   -1.05172307883837   -2.03713466296240
H           1.03191171545517   -1.80797301950453   -0.37160751170099
N          -0.32715157969260    3.21505337264545   -1.40940650683406
H           0.60074972624337    3.06574367468047   -1.02924852244871
H          -0.97123808335593    2.86749953163565   -0.70887400176256
H          -0.46487228547297    4.21764606308138   -1.47050177174135
