    26
        -50.45260126  Gyration_radius:  2.49765879296 Dipole_moment: 5.350
 S          -1.15656703919414    1.59217691546976    1.19598081253343
O          -2.01436662768430    0.98468487275755    0.14706844866314
O          -1.89983023918841    2.16122828118902    2.26628913258375
O          -0.18494286603796    0.56268661374333    1.63727363549196
O          -0.32255302750925    2.71384021281456    0.50021333122379
H           0.21765689677166    2.30158457825298   -0.21013724209851
H          -1.06377729270637   -0.74060364251598    1.67521609603595
O          -0.24112096932394   -2.45498584148854   -0.60969173429235
H           0.06672753933037   -3.30312900710943   -0.92986342969763
O           1.04969188080536    1.67478627377585   -1.53849680438019
H           1.02334790923579    2.31704717307381   -2.25001853234562
O           3.24700733908757    0.33782045479893   -0.61650593953412
H           2.52350583420600    0.85562963266911   -1.01497787781746
H           3.69864869656204    0.92550042328524   -0.00861826323052
O           1.57982686049847   -1.27863932866862    0.77410909036785
H           1.06346034458632   -0.55549110614950    1.17791381139168
H           0.53378059929389   -2.03993411764895   -0.11160788978786
H           2.27520578897376   -0.83412672605809    0.24798346215613
O          -0.80927052111000   -0.05854944175767   -1.95317592959622
H          -1.37290437729921    0.35655969364957   -1.26130615316068
H           0.39016456688145    0.95642082457397   -1.78569166629169
H          -0.60833819664203   -0.95185775487494   -1.63258746356794
N          -1.84442752750907   -1.30858254517865    1.21318486862023
H          -2.26542718778250   -0.48954471324139    0.67626912626747
H          -2.48105222555059   -1.74909886418668    1.86684181569680
H          -1.40444616870310   -1.97542288115268    0.54433528482717
