    26
        -50.44388469  Gyration_radius:  2.44581043846 Dipole_moment: 3.522
 S           0.14098418464551   -0.50629573336059   -1.52952063068709
O          -1.23224160408814   -0.16513109700938   -1.27444333401774
O           0.54924183627725   -0.61435448590210   -2.87942643379229
O           1.09168812337069    0.50154137797826   -0.81452825318981
O           0.42179340686509   -1.82154522821178   -0.75042174495528
H          -0.28509929117511   -1.81124083150663   -0.00644264614471
H           1.29937758137532    0.27200509812149    0.13165013014464
O          -1.31543148719292   -1.66951679494843    1.08842916893796
H          -2.10429759847955   -1.50183614716021    0.56503649700306
O           1.81540888893988   -0.12129541923002    1.61111452906410
H           2.75782250410361    0.03131941464062    1.70158344748731
O          -1.45625923697360    2.14855623752940    0.09164945133370
H          -1.00691007449927    2.75354744057372   -0.51042369702518
H          -1.56549682073119    1.34110832254738   -0.43756275588682
O          -0.80913749948076    0.61727922719254    2.19410963466750
H          -1.15086807275112   -0.80301924448750    1.58178397855328
H           0.15312865165648    0.66457213038043    2.23504101090076
H          -1.09166054226497    1.29597692055317    1.54375550316790
O           1.27326973660129   -2.70321881807592    1.81501871540707
H           0.33354089273678   -2.71281784732941    2.03180968448556
H           1.33596739333385   -2.97697064495575    0.89370013861518
H           1.66417898104369   -1.09121672956876    1.75971393683417
N          -0.30994892938398    2.39952853628176   -2.56460381913167
H           0.58850884671180    2.01691342358969   -2.29488647865909
H          -0.18333618778893    2.85545125518188   -3.46123680484469
H          -0.91422368288612    1.60065960718586   -2.72089921830808
