    26
        -50.44120196  Gyration_radius:  2.81300634765 Dipole_moment: 8.282
 S           2.14674007343470   -2.31414471268029   -1.16722440171635
O           0.72304357490376   -2.53994624978781   -1.23584345459707
O           2.99607134854037   -3.22354009970538   -1.83471459963064
O           2.40837121668698   -0.86483638771587   -1.68763686316283
O           2.56793725880699   -2.23411308194106    0.32475595831318
H           1.95692435211689   -1.62825256314460    0.82489625828681
H           1.56678484440961   -0.34036714942502   -1.66697043196681
O           1.03170864359882   -0.60293279142171    1.65882135234432
H           1.35262859471839   -0.56227198171845    2.56119947898030
O           0.14186027006870    0.46974922953432   -1.67387602548167
H          -0.21736140039555    0.31849150080004   -2.54967911340560
O          -1.21144762399948    2.74044732005000    1.31448144280237
H          -1.47071130462030    3.61098307730707    1.01107981100467
H          -1.90451642475692    2.10913398179945    0.99722316125817
O          -1.10309128610929   -1.13080718258161    0.01458676722255
H          -0.41765363324108   -0.06085739765611   -1.04353997518174
H          -0.62578737296098   -1.85386285834783   -0.44308067993992
H          -0.58704028257475   -0.98141777192335    0.82235917014559
O           1.17906848032027    1.74775543173833    0.61007064645596
H           0.36028112724414    2.17855313044823    0.94215150187207
H           1.15286728115034    0.32447541639762    1.27608737165501
H           1.02589948446031    1.59048657827074   -0.32930936005192
N          -3.10213306294484    1.01953758599463    0.39544195832217
H          -3.59834311654670    1.24652272761000   -0.45754097706046
H          -3.79300357431520    0.81737904215257    1.10748189778914
H          -2.57909747805533    0.16383522774074    0.22877911769870
