    26
        -50.44120215  Gyration_radius:  2.81395488048 Dipole_moment: 8.297
 S          -0.89166054241743   -2.33787902087006   -2.25363747262900
O          -1.03303587746704   -2.59597317486712   -0.84080728323662
O          -1.44583402508636   -3.27033132474801   -3.15767839127875
O          -1.48694673685002   -0.91951116517109   -2.52462327252281
O           0.61539778735571   -2.15592224784079   -2.57902877790088
H           1.03898586213378   -1.53645017611353   -1.92532661922084
H          -1.54621285249610   -0.40882406021988   -1.67639533295984
O           1.75213349986144   -0.48537416416377   -0.93031344428105
H           2.66906642997412   -0.38745363401649   -1.19216600083261
O          -1.68649489212580    0.37546480132472   -0.24384129388373
H          -2.57336783112903    0.17210366668805    0.05787449005618
O           1.06940415066913    2.79024494230086    1.33541522476159
H           0.74948073339118    2.12720581406632    1.99706133946509
H           0.69794979053929    3.63553299257562    1.58962998449980
O           0.57876649999223    1.80324443440071   -1.11039807073127
H           0.83187260601148    2.23771608485947   -0.26577771342365
H           1.32456153039145    0.42084242177303   -1.06173011399017
H          -0.35737519810922    1.58820397852702   -1.02025250393899
O           0.00833833497594   -1.14900469061595    1.08381120583021
H          -0.37352183236010   -1.88871963181773    0.56684757323992
H           0.83728942268372   -0.94305240223696    0.62377669969001
H          -1.06383367021055   -0.12943700395975    0.34742681239756
N           0.14487695907336    0.97955896491024    3.13723045761341
H          -0.74568966443374    1.14723275899135    3.58905772070705
H           0.82870686066273    0.80388283711152    3.86301450972610
H           0.05714267531365    0.12669896900290    2.59083028376693
