    26
        -50.45903122  Gyration_radius:  2.40946851192 Dipole_moment: 6.445
 S          -1.54347153941405   -0.12518310956273    1.31652335591370
O          -0.91082300276343   -0.85544990500372    2.42996745487368
O          -2.79011413565280    0.49348917865330    1.61586144934289
O          -0.53944472906294    0.80283886184125    0.76205503418192
O          -1.83199381273514   -1.19607043098389    0.20208179466280
H          -0.99080153235591   -1.50475352244182   -0.19829178164277
H           0.54039888832977    1.36857173115514   -0.33018688065346
O           1.21904327283755    1.65999531283878   -0.98276555911652
H           1.12838216973569    2.61141502956180   -1.05023457489381
O           0.30148920609144   -1.88467357297416   -1.21175226392158
H           0.14000249610920   -2.70474033370080   -1.68055786468630
O          -2.33472579604300    1.29052543336024   -1.16905476495972
H          -3.19032933479735    0.97508808365584   -0.87063916817613
H          -1.77094030215980    1.23330364537170   -0.37898461196163
O           2.41833381991639   -0.63377863149812   -0.06317511502693
H           1.90442002931853   -0.39299210567022    1.39548969751460
H           1.76431111718184   -1.23355966766565   -0.46812981635988
H           2.26638876977359    0.21998667149314   -0.50042198701400
O          -0.37672692384748    0.13826747016159   -2.66243335872893
H          -1.21555589636539    0.47674492523967   -2.28727532430207
H           0.29530532690551    0.76520921741604   -2.34771560727877
H           0.04506003204207   -1.14029499575359   -1.84625107841930
N           1.50565994739997   -0.15100373884640    2.36031055490812
H           2.06116049435870   -0.55974202457650    3.10479527733242
H           0.44324068365385   -0.51291324735874    2.41013960996881
H           1.46173074154095    0.85971972528788    2.45064551844126
