    26
        -50.44120215  Gyration_radius:  2.81363550653 Dipole_moment: 8.299
 S           1.08535944693133   -3.18204557051751    0.18237809626076
O          -0.21308943666917   -2.88537418011365   -0.37328586383925
O           1.57004502652318   -4.50341203206818    0.06884582145932
O           2.10136740486643   -2.18792958272760   -0.46505092650905
O           1.09341562663269   -2.76945435833850    1.67902474837288
H           0.71422472271881   -1.85584061091062    1.78836328715454
H           1.61767614879563   -1.41683372777866   -0.85906757812763
O           0.16945808733569   -0.35249311278432    2.00467124233023
H           0.22367007475755   -0.13639870509347    2.93702371502771
O           0.77447859316421   -0.19366681723399   -1.55161189065826
H           0.63046997697737   -0.47999547965693   -2.45505746336598
O          -0.13380001057435    3.26107120825293    0.22736555674041
H          -0.92745168489352    2.85787208174397   -0.20519004402320
H           0.11777864817956    4.01596272820301   -0.30556284065513
O           1.63806191288679    1.29692439907161    0.67414354071226
H           1.68139556495955    0.90568874844996   -0.20665826864346
H           1.04915191290064    2.07905522481930    0.58646510347481
H           0.79417849763425    0.28579962760932    1.53195651719650
O          -1.45566146708629   -0.58145760040949   -0.19666864515097
H          -1.16081643694434   -0.37154953414109    0.70341369807813
H          -0.10870408840055   -0.24637583446023   -1.09400105001416
H          -1.25735342838091   -1.53594678916982   -0.29577264679386
N          -2.28514752267176    2.14506214616962   -1.00033088046368
H          -2.38474980142812    2.24491808524423   -2.00304696180068
H          -3.15063399403600    2.45252199982627   -0.57413929366803
H          -2.18332378421492    1.15389769596936   -0.79820697295006
