    26
        -50.45007680  Gyration_radius:  2.50593383449 Dipole_moment: 4.974
 S          -0.13305550325802    0.24728153302345    2.43541399670969
O           1.25973883239554    0.07816411979301    2.08275604509792
O          -0.41555400190261    0.83362902802077    3.69034511827754
O          -0.79845435935638    1.05018710765024    1.27418199457895
O          -0.85912965464863   -1.11075206477952    2.33621769829041
H          -0.66743349801023   -1.54469641723583    1.45409023733268
H          -0.04285810871081    1.56750303593650    0.82330639453213
O          -0.28150603493117   -2.28676437870025    0.10021051331893
H          -0.34618859015514   -3.23511759794997    0.22676306552337
O           1.62919415804669    0.42767092335071   -1.78945518935650
H           1.99343555597672    0.65819031847764   -2.64457880098883
O           1.27811287788866    2.09180021854630    0.28154235885009
H           1.79500427603115    1.64864467160880    0.96851861546492
H           1.43889852204655    1.58152696682668   -0.54433857803068
O           2.16119678288689   -1.49207746032163    0.11093332687476
H           2.18718466003307   -0.85034422062180   -0.62050833836336
H           2.03871394554408   -0.96256949707713    0.92193197363830
H           0.70571754406233   -2.06898357595213    0.05369843256859
O          -0.72501816822549   -0.60674684153845   -2.11722523329178
H           0.71489030902110    0.04845462063668   -1.96497198485397
H          -0.73993119575440   -1.29424879227621   -1.43620584776651
H          -1.41801001082309    0.04356605612260   -1.84785655454876
N          -2.54714918946304    1.12672455352856   -1.10873661150157
H          -2.55110416876727    2.07107556298132   -1.47302186698501
H          -2.16845589445222    1.16256083138888   -0.16667127219155
H          -3.50823909548506    0.81532130858283   -1.04633948319407
