    26
        -50.46196458  Gyration_radius:  2.40484516972 Dipole_moment: 9.498
 S           1.86929327796928    0.41879094194409   -0.52381534090435
O           0.72092430483688    0.80707404671189   -1.34184739255381
O           2.84277960336388    1.45454610867196   -0.36092711663203
O           1.25323531039587    0.12472923386429    0.93161744871035
O           2.36572482431336   -0.89329833836537   -0.93135129591773
H           1.19858536174896   -1.76951466632428   -0.95342595007012
H           1.23693353980403    1.05777044860930    1.33235208703831
O          -2.46150289953423    0.07130273641740    0.45906639476386
H          -3.33144189725876    0.00388253309403    0.85479361784747
O           1.26280761554633    2.57370190019705    1.53682461649793
H           1.99034586543239    2.65151412485913    0.89856534837962
O          -1.36737353174771   -0.62409722932754   -2.00800506799519
H          -1.95625623053934   -0.33141857577216   -1.29341127231094
H          -0.62519797878664    0.02102814917118   -1.98669378900381
O          -0.87859704025340    2.47498543799968   -0.04573587775642
H          -0.29829182824061    1.98277369468417   -0.66190376452530
H          -1.55789130653748    1.83947575984325    0.21110874356115
H           0.43657109868008    2.79404195622958    1.04810157058978
O          -0.59494502852966   -1.59762563443649    1.62730884775030
H           0.11244790437340   -0.93796747669971    1.42103750952387
H          -0.51397936465639   -1.78801885707200    2.56347236399914
H          -1.87217750545323   -0.53618251700276    0.94310868991484
N           0.26760533028901   -2.34804774859699   -0.93340467193413
H           0.40214905958155   -3.25155832934138   -1.37399701777362
H          -0.46392632381998   -1.75327264399483   -1.45421693659340
H          -0.03782215098262   -2.44461505535331    0.04137827539156
