    26
        -50.46196463  Gyration_radius:  2.40490731171 Dipole_moment: 9.501
 S          -1.11608441440458    1.54658117412238    0.55381790435372
O          -1.69553509140174    0.27653067277197    0.11795952183134
O          -1.72452640320559    2.08909854491528    1.72956923182564
O           0.40433960126972    1.19160143960417    0.93665815971187
O          -0.95654259715956    2.45117028385837   -0.58205899344732
H          -0.25841077153237    1.68142154620322   -1.60695923815050
H           0.29742161234209    0.86799069599696    1.89341758779422
O          -0.26504883736575    0.35831409556574    3.22141562965418
H          -1.02386869682193    0.95792661371538    3.13513958222218
O           0.97892568745762   -2.27820824332953   -0.35501040196576
H           1.56556476959577   -3.03180177907571   -0.43182790303275
O          -1.03944979969885   -1.19735166533483   -1.94385054166857
H          -0.42905526451508   -1.79596582428562   -1.48314162660413
H          -1.51955989745708   -0.73930418366912   -1.21786103021347
O           2.28361276187463    0.14884963427710   -0.56211157675967
H           1.52610965458746   -1.47411215086792   -0.42272680947465
H           1.61443295768688    0.55206022743250    0.04430578320710
H           3.14069777791887    0.36488974015867   -0.19074753455519
O          -1.00126871921124   -1.71619296413953    1.72016836730283
H          -0.57050605257101   -0.52617048709042    2.91391044751467
H          -1.42999492888064   -1.04522762531625    1.15034102236123
H          -0.30754651508144   -2.09827885066237    1.16882527707250
N           0.27274625746809    1.02679229643819   -2.30780004033291
H          -0.26350423214224    0.09279506134369   -2.30775546445561
H           1.21546670199915    0.85152056006420   -1.94244104661595
H           0.30158444929548    1.44507117724447   -3.23123630754896
