    26
        -50.45829576  Gyration_radius:  2.56854092349 Dipole_moment: 2.965
 S           1.13823693752496   -1.86486194641557   -0.70579888539677
O          -0.04140701086313   -1.74756614719901    0.16010701060051
O           0.76488846638898   -1.84222448009975   -2.10327893579552
O           2.16791779544150   -0.91493471735409   -0.34463183599118
O           1.75136105927899   -3.29970608260886   -0.41686865011930
H           2.29104933450849   -3.16611364141503    0.35814017862355
H           1.70777620876021    0.60450912105182   -0.53507665850493
O          -2.07952062186461    1.82731261319646    1.07640449112647
H          -2.44666770395485    2.62637699224079    1.45607338497252
O           1.42166155326579    1.54812550161831   -0.63890667072424
H           2.18560122628275    2.01587312641646   -0.97989853374876
O           0.62879209394726   -0.99790617327172    2.60494302605185
H           0.41994497774116   -1.28725910593000    1.69130580382249
H          -0.11923759504448   -1.26211892324985    3.14392137732796
O          -1.18155346696572    1.81805240323917   -1.41584711852744
H          -0.22209822566529    1.83563150615716   -1.23684513080046
H          -1.44819773889488    0.36456191465145   -1.67755682379551
H          -1.60335515943926    1.91744456830792   -0.52706039527559
O           0.38798780415912    1.63930498896713    1.95658531164573
H           0.57175830170863    0.73903782663858    2.29046605622606
H           0.86601976291281    1.70189513601336    1.11467490761637
H          -1.17753314284167    1.72488449589725    1.48610574802176
N          -1.52869391643550   -0.72334010594332   -1.70896194883951
H          -0.70604903877569   -1.12833881885751   -2.22305935496041
H          -2.42021915547620   -1.04154859724193   -2.07214460345634
H          -1.32846275534544   -1.08709144489031   -0.75279176020317
