    26
        -50.46196452  Gyration_radius:  2.40478992647 Dipole_moment: 9.496
 S          -0.53983956368452   -1.86405770276275    0.42112073531511
O          -0.93777313415771   -1.19451901006351   -0.81660616335481
O          -0.07486307814273   -3.20398855170832    0.23283717650819
O           0.70849906940452   -1.00930313350239    0.96466016487695
O          -1.54560620272712   -1.65601987935741    1.45997496410671
H          -1.78858964341110   -0.21715797918857    1.49355488798322
H           1.47621955518602   -1.42888015158958    0.44889276729333
O           0.77938671944319    2.10344455367148   -1.11458152024923
H           1.22216358565880    2.92335068913221   -1.33724373731819
O           2.31977965854495   -2.21038284425441   -0.56014208698571
H           1.68684262442724   -2.94591631313498   -0.52591646812161
O          -1.86783462515515    1.23184748544645   -1.13390189036150
H          -1.02339927587459    1.66725420629061   -1.33503056164903
H          -1.66866929515500    0.27222302104973   -1.21698966208451
O           0.82605295237769    1.53296602574376    1.58837122946957
H           0.83450836881113    0.56705238206744    1.37617363307553
H           1.56289762091101    1.67916558095946    2.18411237857034
H           0.86090374493795    1.97943979319007   -0.15090262820454
O           1.16629956556056   -0.54361562081111   -2.28950802866062
H           1.20938728583091    0.39226007492211   -2.05804246948377
H           2.09648712866865   -1.68586412748779   -1.36332773378968
H           0.32298434623432   -0.85649887238397   -1.90270433467404
N          -1.89610197833749    0.87290523469917    1.44883578969124
H          -1.03091116145795    1.30252105727809    1.79473854180017
H          -2.70242618373614    1.17194435759410    1.98638976829319
H          -1.99639808416184    1.11982973420021    0.40523523795856
