    26
        -50.47455442  Gyration_radius:  2.4261131605 Dipole_moment: 3.598
 S           1.10453189479259   -0.44869365013051   -0.96799798117550
O           0.10960888565906   -1.43753245503694   -0.53874883498548
O           0.47582159179838    0.70036232680058   -1.59069777099490
O           1.95903813524237   -0.08616881943387    0.15479205571215
O           1.98562387635894   -1.12181841013600   -2.06435348896130
H           2.41262355611820   -1.85808828860520   -1.58362701898673
H           1.60593141111876    1.56269733467312    0.48690129952572
O           1.23208463166505    2.46494821093758    0.51665527400909
H           1.15379224848133    2.71763444054022   -0.40643331440750
O          -2.54495943029820   -1.37962581269177   -0.37331703504732
H          -1.59901618765584   -1.56026818082216   -0.55572290419745
O           2.59829630915870   -2.67777824101744   -0.01901512840267
H           2.62066058758469   -1.78159482612534    0.35597781485828
H           1.69616923422327   -2.98857756041830    0.10606426347210
O          -1.20030976917576    1.97053331991904    1.51843525910154
H          -0.31845417250824    2.33448602829255    1.27649768766315
H          -1.79161837779235    1.61231709889757    0.15515914382277
H          -0.99954416063023    1.08128593438522    1.87641788240737
O          -0.27298912251039   -0.53328016866196    1.94807969339529
H          -2.66684578459141   -1.57806676460870    0.55860234414753
H          -0.14592710589976   -0.91072469377281    1.05548713227032
H           0.61467207039265   -0.34297352703165    2.26195083626467
N          -1.99339027540499    1.19140874180409   -0.82203148573633
H          -2.41817520135862    0.23931226726050   -0.69460831144670
H          -1.04525879136149    1.03674935491557   -1.25848811658192
H          -2.57236604392320    1.79345635004441   -1.39597930558300
