    26
        -50.45903136  Gyration_radius:  2.4095167415 Dipole_moment: 6.441
 S          -1.46387341984264    0.23257529710915    1.39117505393602
O          -1.43838570453896    1.69269726181228    1.59275475318057
O          -2.60393981548120   -0.44082513199581    1.91405032770499
O          -1.22893344092580   -0.02564127775317   -0.04231659259719
O          -0.21655624387348   -0.33504899537299    2.16206065646637
H           0.61215776220811   -0.07545934892118    1.70475662163981
H          -0.39267226253933   -0.50504858976229   -1.36514003220298
O           2.08125175916620   -0.01205292705897    0.88164512116070
H           2.81701722596176   -0.12693636885310    1.48482762466497
O           0.15072673326045   -0.75566371089917   -2.14817933412888
H          -0.43794901222670   -1.23052965053287   -2.73635214574059
O          -1.10735351291893   -2.61652108099415    0.63838779151494
H          -1.48762529344519   -2.71522301335551    1.51378578285274
H          -1.32320901011023   -1.70250549720695    0.38671797617934
O           1.52885198142447    1.47290705482356   -1.32181423213354
H           1.21083287039428    0.72669518656068   -1.85582318386084
H           0.21191463660087    2.20731297316494   -0.90117617153866
H           1.86352859411233    1.06062688640587   -0.50357878009767
O           1.44872935487491   -2.25983320943634   -0.21531103675405
H           0.61896551627853   -2.55135767127508    0.21546623160251
H           1.16211652819981   -1.91659687541237   -1.07773321700652
H           1.90980756127064   -0.91872291722637    0.46799645005136
N          -0.73747854787751    2.62851042445527   -0.63728547127272
H          -0.71120830674521    3.64287566012250   -0.65399187453196
H          -1.02550438308934    2.25278436336009    0.38161526777546
H          -1.44121158013913    2.27098115824078   -1.27653759686220
