    26
        -50.45829583  Gyration_radius:  2.56827717196 Dipole_moment: 2.965
 S          -0.11062236150946    0.40902297465422    2.25603927267058
O          -0.54476733696944    1.23463624217808    1.12247019874643
O          -1.12125793975830   -0.56309756090431    2.61165818602460
O           1.20790325586695   -0.14726596976347    2.04340023252659
O           0.02988045423502    1.39847274586365    3.48856164067807
H           0.90180292940782    1.77095055259319    3.38475898982525
H           1.26510022043022   -1.15160100798097    0.80026458455761
O           1.30779392428102   -1.76462857304202    0.02218312043060
H           1.88644719200753   -2.48140064767259    0.28690434552838
O          -0.44616731464538    0.09656590871510   -2.93437175668111
H          -0.26468107043573   -0.04717241068965   -3.86380926114656
O           1.50812738864471    2.42821083579719   -0.03912118991545
H           1.11312622612306    3.15957460955250   -0.51767647631052
H           0.77046366742875    1.97867546890881    0.42550870656575
O           1.88064387204027    0.32985026896655   -1.73874159974052
H           0.43881573321328    0.26835095270082   -2.51098176992500
H           1.89142548395331    1.10777250098094   -1.14662524438885
H           1.83852717908076   -0.43929714616931   -1.14895144211980
O          -1.04273182417347   -1.94469081350767   -1.35497437492087
H          -1.88314598255076   -1.16105781889147   -0.38958567494243
H          -0.87669636875219   -1.25529171633113   -2.04415095393136
H          -0.19238892712657   -2.03198331270230   -0.88362809415771
N          -2.33297007295933   -0.47812882029510    0.33309299258671
H          -3.32848991235847   -0.35215242439261    0.18819522099570
H          -1.80239759432704    0.41852842178728    0.29925006064947
H          -2.09374082112836   -0.78284325037941    1.31033027636563
