    26
        -50.44621521  Gyration_radius:  2.41594245617 Dipole_moment: 3.589
 S           0.38180276879598   -1.50672143868040    1.28085056195756
O          -0.62547570564084   -0.89752993955450    2.10677245940358
O           0.05675850451250   -2.74760598805689    0.66784656119039
O           0.77823118912054   -0.46533244402477    0.20221279541108
O           1.69244189855923   -1.62577381453387    2.09599575147883
H           1.82265678681415   -0.69067388531216    2.41917122601724
H           0.87711669798015   -0.77974986470397   -0.74845179353273
O           1.09199644888464   -0.82260279537081   -2.31270758460022
H           2.03036422731208   -0.86419427590813   -2.50727169850413
O           0.36078342728340    2.30996435435102    0.47537633352093
H           0.10165314559880    3.19779746564705    0.72971767399121
O           1.36427152581890    0.88091815879778    2.65807107681315
H           1.24970753295579    1.37750125236246    1.82494327340830
H           0.47402075058382    0.59125514964610    2.89662400730583
O           0.28057194393000    1.67666576242899   -2.18696913511539
H           0.82406661988988    0.12993441678984   -2.41062653792246
H          -0.67911401627940    1.64189912120912   -2.20365128114708
H           0.51458695875444    1.91244621724423   -1.26662582390525
O          -1.81835365633187    0.83525974152409    0.40662243505818
H          -1.60943660840102    0.28279945166414    1.17672472199174
H          -0.47292363523796    1.76340066813026    0.47026525102831
H          -1.86443967631770    0.17964809409562   -0.32557443903440
N          -1.74368634450732   -1.33327388701943   -1.25963806307664
H          -1.11772640759318   -1.34737581592852   -2.05725302072564
H          -2.62592898451929   -1.73122828421568   -1.55986144131059
H          -1.34394538202000   -1.96742741054322   -0.57256330966534
