    26
        -50.44382129  Gyration_radius:  2.44566771926 Dipole_moment: 3.517
 S           1.59138350769913    0.34798777760774    0.03058494327889
O           0.95725693262616    1.18470853259795   -0.95107414584037
O           2.86172863802123    0.75178387096402    0.50572876987422
O           0.65901838957343    0.15049540740954    1.26250900392345
O           1.64090292976551   -1.08413257903800   -0.57256366096594
H           0.87642897074060   -1.07397739331108   -1.25657348515511
H          -0.00761662299018   -0.58133000678666    1.16338736909628
O          -0.31363868442946   -0.97889210874151   -2.18452649625501
H          -0.08510277244278   -0.18990220044184   -2.68397280605578
O          -0.99491326939767   -1.86393537840135    1.16167722055684
H          -0.98412737001374   -2.31264281204623    2.00907899375819
O          -1.36732867814750    2.23277045491516   -0.07893461503025
H          -0.55501468000780    2.01486893414357   -0.56410990266945
H          -1.03381108161108    2.63995339624832    0.73260372200872
O          -2.27763198774903   -0.21077149169808   -0.68196048885344
H          -1.12485860352233   -0.70845718513988   -1.64523962136465
H          -2.18380147998979   -0.71763072653117    0.13265731192987
H          -2.10016268292536    0.72763233533926   -0.44776784766234
O           0.02081698222140   -3.42436120073142   -0.71902044437551
H          -0.66942236136595   -2.51484220311942    0.48661002749085
H          -0.31867286805781   -3.02893783767720   -1.53073456732072
H           0.95217205133139   -3.18269082132642   -0.67581748920840
N           0.84479117881129    3.01123162849357    1.55576139180155
H           1.38552901721701    2.65922829627054    0.77355208226099
H           0.91307102413177    2.30827537085833    2.28205236814494
H           1.31300353050906    3.84356795014667    1.89609233664912
