    26
        -50.46196458  Gyration_radius:  2.40485337284 Dipole_moment: 9.495
 S          -1.80046681154934   -0.64033009017930    0.54057801159552
O          -1.60859490706189    0.51496331924746   -0.33539678241150
O          -2.81732975037236   -1.54334027537075    0.09621628441999
O          -0.40659795183164   -1.43857286808418    0.47482936260757
O          -1.86028826217007   -0.21692985264835    1.93736784911694
H          -0.68979509825619    0.62989481323822    2.14575617736333
H          -0.53960337314838   -2.00127791264305   -0.36012721201606
O           1.98808056954294    0.86664849051616   -1.25240104701948
H           2.86249909613021    1.00416001405903   -1.61893083331313
O          -1.05051149813685   -2.57746147908437   -1.68191563272158
H          -1.96716242881548   -2.44913166776687   -1.38863898122542
O           0.06960072973979    2.50681386400449   -0.07021912900332
H          -0.70597754155549    1.93953654843740   -0.28012543559336
H           0.78241364311299    2.14738050594991   -0.62321410417437
O          -0.39710118254841   -0.16033708196880   -2.59273917771986
H          -0.83218313705410   -1.81194339142124   -2.26198975985527
H          -0.96625791212078    0.17471727413284   -1.86990161839221
H           0.49031444438910    0.14385708600332   -2.36637930614134
O           2.00184694385098   -0.60690300560589    1.08493011636574
H           2.55963674814781   -1.36383246701403    1.27255444340883
H           2.09083627568655    0.32855642865513   -0.44586205606014
H           1.11414433655197   -0.97416605926668    0.84987142371443
N           0.21731681340453    1.24249785751561    2.20586868413641
H           0.19912099993570    1.88717319344655    1.34331120362753
H           1.03450516390776    0.62721409350180    2.12511624188098
H           0.23155410022875    1.77081267233407    3.07144127741817
