    26
        -50.47455454  Gyration_radius:  2.42605486687 Dipole_moment: 3.601
 S           0.59031018250958   -1.37201832927161    0.35576752699962
O           0.16208386086903   -0.49226233469551    1.44876041332201
O          -0.49550382133650   -1.63618565588173   -0.56867099376587
O           1.76628119910472   -0.81370396704805   -0.29786300090618
O           0.97878977996141   -2.74354881703867    0.98795227110055
H           1.73290956497697   -2.51499167189927    1.56617487293476
H           1.25193285780311   -0.38845517303066   -1.88211904901804
O           0.74444688671435   -0.20083651234028   -2.69568299143120
H           0.18733464181372   -0.97465140653224   -2.80878320774375
O          -2.04286091501402    0.93749957634918    1.86271600075729
H          -1.27905963163759    0.32371051265016    1.88629985884611
O           2.80739290242155   -1.21881018599078    2.13346773918686
H           2.16195545439498   -0.66564933075392    2.58463148177095
H           2.80535383423281   -0.92157103816981    1.20840570755955
O           0.80125904400475    1.84666235357300    0.32182838143454
H          -1.66707684144820    1.81580370192572    1.96348271743169
H           0.57444176338312    1.01372770696595    0.78020726583897
H           1.66404432805049    1.68400534674301   -0.06793284758379
O          -0.75230426086406    1.86736343086450   -1.89138976824908
H          -0.21396865169546    2.10197129504324   -1.10748999621889
H          -0.19378172462346    1.21966784694740   -2.37832164467861
H          -1.81725824928156    0.97091524276499   -1.26004697694725
N          -2.35427936145593    0.22381135886898   -0.68884901313959
H          -3.25245557386495   -0.00990176574918   -1.09601578291622
H          -2.44575203464492    0.56186165003989    0.30127384425197
H          -1.71423524436049   -0.61441381442780   -0.65780280880621
