    26
        -50.47455447  Gyration_radius:  2.42608343458 Dipole_moment: 3.598
 S          -0.13263153007267   -1.27309053629002    0.84850177632330
O           0.24809927460083   -0.02493369548220    1.51871099275625
O          -1.39289573914753   -1.13375072618720    0.14440202205506
O           0.95104019267175   -1.72220542741258   -0.01516898358391
O          -0.35975321572269   -2.34558156305772    1.95746886292669
H           0.52252843873864   -2.42761050991507    2.36990153338250
H           0.34557339824291   -1.58771221885868   -1.61833843017377
O          -0.18026274733432   -1.40281684558767   -2.42073701881049
H          -1.06340501867597   -1.70678905470671   -2.19806616769847
O          -0.71346527917762    2.45318821885653    1.41147576209480
H          -0.39895952726696    1.55577307679925    1.64909806481399
O           2.21430186950915   -1.88515576048025    2.33743070297995
H           2.08669320362768   -0.95681321856945    2.55656142390368
H           2.12887742150110   -1.93998151520606    1.37102764274579
O          -0.13722092808608    1.27353306207982   -2.44775093796314
H          -1.30931501066112    1.39517975174211   -1.47418321895254
H           0.62381902327025    1.38282331698603   -1.84094132861300
H          -0.13734350430340    0.31220768221420   -2.65845789385578
O           1.68719279337313    1.04400240834745   -0.46512334777879
H           2.21194141200070    0.30777615743882   -0.78982226916684
H           0.07231861314998    2.93479248132818    1.14067275269631
H           1.18998283578779    0.67977735597211    0.29342696208216
N          -1.98753599412518    1.30943349645794   -0.63424776237138
H          -1.63552517114487    1.92116279727981    0.14351861572542
H          -1.88715632087124    0.31457889678089   -0.29721016456818
H          -2.94689847950541    1.52221236911959   -0.88214959123159
