    26
        -50.45903123  Gyration_radius:  2.40943333296 Dipole_moment: 6.444
 S          -1.42093245780668   -1.00265909200568    1.05194462040216
O          -1.52375908488817   -2.25156914725967    0.27553138748576
O          -2.02565887501899   -1.02743320754129    2.34044460643827
O          -0.00073988099395   -0.60333067795054    1.07156712940293
O          -2.18534776039562    0.09094550669341    0.22017775440763
H          -1.68462797676737    0.30799996576772   -0.59554199540711
H           1.31438635439534    0.28982785387133    0.68110076411503
O           2.09622716482258    0.81501791618057    0.39104859481659
H           2.63008146410429    0.94809445533702    1.17544329308650
O          -0.80914007988462    1.03535988958216   -1.83867881521126
H          -1.39263509766218    1.48453696877257   -2.45198686108251
O          -0.84828819172190    1.65649609958517    2.23977956590560
H          -0.54358620478968    0.77147866148390    1.97659008173240
H          -1.74020906262971    1.51158604567639    2.56253809221239
O           1.47002449624774   -0.43141399809803   -1.97571289615966
H           1.05445781164496   -1.75134249817017   -1.24472879543414
H           0.63763744970164    0.06014970454292   -2.10629029776892
H           1.94122351089690    0.06906002781064   -1.28966130069509
O           0.11056701987949    2.68919647890416   -0.08503213032117
H           0.98417718487039    2.28363689638785    0.04184919230200
H          -0.46425890788219    1.74394105386999   -1.20506050493092
H          -0.36627620218867    2.49857935472523    0.74881452413603
N           0.78594873942208   -2.60943457259051   -0.66144823329282
H           0.86885641577684   -3.46541682609947   -1.20030312114715
H          -0.26441331076297   -2.47366147611481   -0.28694568693772
H           1.37628549162613   -2.63964539336109    0.16456105194631
