    26
        -50.45475614  Gyration_radius:  2.58830009283 Dipole_moment: 6.611
 S           0.27984514518330   -0.00345600029437    2.62094742162500
O          -0.96204612392737    0.74843191146534    2.77104972220036
O           0.87052804022943   -0.48035564560706    3.82986294566151
O          -0.17912403433719   -1.35779313774681    1.81576209004972
O           1.16599751039297    0.65424879233593    1.67756598105367
H           2.18861035268492    0.12584121558464    0.59772957563267
H          -0.47180943277836   -1.90355184214324    2.53886454846292
O           2.73937816974177   -0.14703345421359   -0.18369632555681
H           3.65182692586345   -0.02580513258173    0.08075700409093
O          -0.52745100563155   -0.87516412064888   -2.42465194430612
H          -0.49358135242750   -1.39127988499778   -3.23072318934767
O          -2.74284766760692    0.13546603393740   -1.24902699361100
H          -3.28840897191734    0.48390681252504   -1.95537968996172
H          -1.98744960960654   -0.31913639229958   -1.67662288652931
O           0.76401187831254    1.38110093653161   -1.41522607981564
H          -0.29282075697708    1.59563350132274   -0.16579894417946
H           1.57334498491118    0.98727855756595   -1.05066466277544
H           0.34388230144880    0.67561361123526   -1.93332717722814
O           0.89350037167980   -2.10404039339660   -0.62898103518035
H           0.45033411861021   -1.96272747375860    0.22208129093665
H          -0.01834213210563   -1.40122509800046   -1.74002305251175
H           1.69753037702780   -1.55648202301034   -0.57914747673653
N          -1.19388616578776    1.67744667269739    0.38289338193048
H          -1.91239576862836    1.11739664643171   -0.12162338010285
H          -1.47442485084346    2.65162676893582    0.43370864196658
H          -1.07420230352408    1.29405914815243    1.38367023418784
