    26
        -50.45019012  Gyration_radius:  2.49742998377 Dipole_moment: 5.273
 S           0.89790926593021    1.39100478055190    1.76108721685042
O           1.42068319916459    1.88488383231610    0.50688551613775
O           0.96973288608998    2.25283411738112    2.87956386250805
O          -0.57543318707739    0.94432018050078    1.49328495578411
O           1.57145049161480    0.04964181291254    2.11232468533713
H           1.59879054543750   -0.56109581199306    1.31548195051064
H          -0.88071010372035    1.45931313603806    0.66889651588028
O           1.65128948345145   -1.60344916408159    0.13505501622524
H           1.98110863012437   -2.43908040828728    0.46932816720263
O          -0.48366427809621    0.27412940770101   -2.41028067885143
H          -0.57761245130747    0.35012414890582   -3.36051822885250
O          -1.00380308203272    2.23473678669164   -0.63843467882939
H          -0.10435369940252    2.58450634594504   -0.56520825044471
H          -0.96690610381912    1.54933972490776   -1.34127023193616
O           2.01655419826062    0.45015375671335   -1.68038506046929
H           0.49649954181675    0.33180156684434   -2.21624672540071
H           1.94673211993713    1.09472262729677   -0.95090438128403
H           2.18408525389196   -0.39391878312541   -1.23833742140000
O          -0.69572965679278   -1.99181340184575   -0.81888519868085
H          -1.35751002269940   -1.83004208570170   -0.10196220510842
H          -0.79208405416333   -1.25645272162298   -1.44606189403931
H           0.72026177128502   -1.79018866312172   -0.22839258603398
N          -2.37693469774361   -1.36367304161928    1.20175863591327
H          -1.85556330635508   -0.56349640073900    1.54898001057500
H          -2.48576734450061   -2.01958281527955    1.96485503513119
H          -3.29902536928643   -1.03871891728923    0.93938597328270
