    26
        -50.45812140  Gyration_radius:  2.42436263767 Dipole_moment: 3.417
 S           0.24526248959451   -0.06751048728365    1.78387860639145
O           0.64023504471924    1.15150058711177    0.92092643118251
O          -0.49327243901828    0.42634808176281    2.89735076084252
O          -0.65093194584534   -0.91494531241146    0.85937225252129
O           1.40745372331822   -0.87044899153558    2.05487647304148
H           1.96425506200653   -1.64326718473308    0.74845137487655
H          -1.36603626497045   -0.30078920552278    0.36430314447614
O           2.31104455136768   -1.99661824703849   -0.11061656048820
H           3.11876395934949   -2.46613059182007    0.10409792158962
O          -0.33681749751599    0.05137792962036   -2.44583021375047
H          -0.55585951588119    0.02168770254529   -3.37798870657337
O          -2.15133702982819    0.59278082678672   -0.40267469599761
H          -2.09649303006461    1.41100650720171    0.18175147117176
H          -1.58194619031139    0.71916262199826   -1.18048888720030
O           1.98988968618199    0.49681477355931   -1.11667580946769
H           1.24978631447353    0.91629195443275    0.13136256976542
H           2.25498896328292   -0.41927899125180   -0.90584783366640
H           1.24265407945233    0.43531476208816   -1.74246985494600
O          -0.08470299609729   -2.37301943167519   -1.42908467986425
H          -0.59441967780525   -2.24108660099565   -0.61959940852396
H          -0.30691387406010   -0.89326847233229   -2.13548280089002
H           0.83578404555791   -2.42951845853478   -1.12402961712666
N          -1.84420224908150    2.46632052792519    1.40954931005060
H          -2.62377705754449    2.94606835691233    1.84210745921432
H          -1.13105421483258    3.15203244830233    1.19478932671807
H          -1.44235396644578    1.82917490488871    2.09797194665193
