    26
        -50.45812140  Gyration_radius:  2.42438541978 Dipole_moment: 3.416
 S          -0.55613642885102   -1.62284917916268    0.55119745442290
O           0.34390402276285   -0.70182103115580    1.40459204157334
O          -1.62006149556757   -2.06545289235276    1.38865694589085
O          -1.08223474852523   -0.70771805119314   -0.57209103690285
O           0.24661295502693   -2.62512828358489   -0.09678597795554
H           1.19064480675898   -2.02553226857851   -1.26446243510174
H          -1.41782694751748    0.22068282119432   -0.17307261068157
O           1.81674418126559   -1.57438643819721   -1.88702071019169
H           2.37628247544851   -2.26546532476177   -2.24520591197127
O           0.75621785874882    2.21271841262343   -0.79440841151950
H           0.95560310666606    3.08187163017788   -1.14459200626314
O          -1.65869435021865    1.49473403409293    0.39431838841677
H          -1.74121598221819    1.23559157530684    1.36393045943509
H          -0.79909529649570    1.92626588012238    0.25276872994631
O           2.32559697382142    0.18656406631060    0.10612556409603
H           1.19160483173995   -0.39097478177224    0.91979043729499
H           2.33786437969805   -0.39430561489796   -0.67896600926779
H           1.91899716995342    1.02888517660580   -0.17477476603995
O           0.19151864649894    0.49557070834074   -2.71987598091786
H           0.87311439631947   -0.19371864672994   -2.65796947162248
H          -0.59074146389876    0.09078275945090   -2.32401101175454
H           0.51191503227695    1.64628920261011   -1.57482035617967
N          -1.88941718297456    0.42313275896959    2.77896159571813
H          -1.06195040259516    0.49287832078098    3.35800248913715
H          -1.91884080813862   -0.53213349970747    2.42120175344083
H          -2.70040572997165    0.56351867552158    3.36851082699961
