    26
        -50.45812139  Gyration_radius:  2.42435356804 Dipole_moment: 3.417
 S           0.29072308167797   -0.58168482680722    1.68046725221850
O           1.04389963317195    0.61426433821644    1.05669446373970
O          -0.17606709968160   -0.16435297949787    2.95996740264920
O          -0.88718795362305   -0.83417661663568    0.71878405623883
O           1.11224816895577   -1.76078705602625    1.61984397099253
H           1.30263317245690   -2.32561044035364    0.11691350118269
H          -1.36637324297418    0.08194220903219    0.46416024715263
O           1.46356651876810   -2.54938090005519   -0.83553098121142
H           2.06653290254791   -3.29462824311985   -0.83316427859870
O          -0.41345287983614    0.76027690794056   -2.31287553659618
H          -0.67357598033786    1.03469949266406   -3.19313558660256
O          -1.82690788631946    1.34294882392800    0.01577412699383
H          -1.46301298021385    1.92738346693191    0.75069752808830
H          -1.28676539975543    1.46412609190084   -0.78342149855009
O           1.98316155542847    0.07857615414678   -1.23094296113711
H           1.92250593535042   -0.89584437570622   -1.25833846493343
H           1.23251731427692    0.42090640892927   -1.75352932473881
H           1.49529354992644    0.39529526280900    0.16306461263180
O          -0.97293678616115   -1.78479856428923   -1.88359142904506
H          -0.11632371386144   -2.21231906619345   -1.71935547340875
H          -1.36582848408225   -1.69760006248469   -1.00579730518542
H          -0.69957720323219   -0.18790248203589   -2.21977854476508
N          -0.80152551915007    2.50493544225011    2.13385901828391
H          -1.34382039797531    3.09078960096193    2.75654070989540
H           0.09475087645082    2.95039473975195    1.98158427956378
H          -0.61447718180313    1.62254666374719    2.61111022514377
