    26
        -50.45812141  Gyration_radius:  2.42443120921 Dipole_moment: 3.415
 S          -0.65124564378901   -1.66034551970682    0.25748894366687
O          -0.04746462805626   -0.80273483367352    1.39175453343735
O          -1.89692577946202   -2.16543977602107    0.72889844554358
O          -0.86198544608326   -0.66621230419491   -0.90154397378738
O           0.32340019242759   -2.61061574083471   -0.20716068249819
H           1.54319804293745   -1.92449628159258   -1.01696935475942
H          -1.31725607889770    0.22931460512911   -0.54903347150622
O           2.30824438327547   -1.42735858650512   -1.40507930766708
H           2.96134014881398   -2.08894323450736   -1.63901945814563
O           0.89750885798963    2.26698363542204   -0.39312519540161
H           1.16664093276250    3.16009764047289   -0.61169487582419
O          -1.73670086542754    1.45784343007948    0.01547371359920
H          -2.08156805262086    1.12802452824304    0.90220333803464
H          -0.88197515188267    1.90064175494871    0.15174553729180
O           2.19775423578959    0.18386576600385    0.76856811215851
H           1.86699842925572    1.04358786047729    0.44430925555237
H           0.89466346246910   -0.45486158661645    1.18796803760601
H           2.44285413367135   -0.33767695792721   -0.01999767744880
O           0.93502453713468    0.69458344054442   -2.51474113292251
H           0.89487970182685    1.75874676074585   -1.24826969392829
H           1.58744542249788    0.00412684830598   -2.31177449479877
H           0.08257389045294    0.26004797922467   -2.38433695920018
N          -2.60135508132465    0.21342301535224    2.15849686550876
H          -1.97049994312913    0.24222597348514    2.94974759059293
H          -2.50773047253545   -0.71297884462948    1.74087454601861
H          -3.54781922810892    0.30815044777193    2.50521738888624
