    26
        -50.45061092  Gyration_radius:  2.47896014522 Dipole_moment: 4.883
 S           0.88821749523189    0.55202498237198    2.16250116679479
O           2.08425613882120    0.85872474218584    1.23305085476964
O           0.86123647038736    1.50928628326828    3.20550855694827
O          -0.34118140443953    0.74718044540801    1.21326124539875
O           0.87776213759382   -0.84023151941644    2.51982454693118
H           0.41359633534039   -1.81649837774957    1.31595052785673
H          -0.12300118347977    1.51643004920477    0.59776527657425
O           0.28314674083665   -2.37756817996148    0.51103983424732
H           0.36297400645219   -3.28646713546523    0.80512246800646
O           0.57014054106224    0.49406414426961   -2.28177233690623
H           0.53089072165356    0.56425942302618   -3.23612692295401
O           0.47797628883282    2.47716425214333   -0.47248640145543
H           1.38132900389930    2.57484079484965   -0.15541213989721
H           0.51316137037580    1.85809792397134   -1.23526967813027
O           2.21964675260384   -0.86340035385435   -0.60677864966063
H           1.76311745035121   -0.39374722586133   -1.33194035107918
H           2.20845579672442    0.12329845510248    0.52186941223811
H           1.60032878634045   -1.56024357546240   -0.31007757887092
O          -1.24470714844648   -1.16296834755457   -1.50838594830466
H          -1.96040100524815   -0.67295944856687   -1.03841439868350
H          -0.18152754564710   -0.12588871687323   -2.01355873701489
H          -0.80388262786513   -1.68683607523399   -0.82200031828657
N          -2.99784381515679    0.22627692696914    0.02737864531052
H          -3.36580969429576    1.10467507375610   -0.31494304974205
H          -2.27268400801831    0.43871290949724    0.70595713248282
H          -3.74519763390794   -0.25822744002416    0.50793684342863
