    26
        -50.44731964  Gyration_radius:  2.52053594389 Dipole_moment: 6.561
 S           1.34060985103630    1.34890535636307   -1.55995197839685
O          -0.07574318857182    1.07524988172021   -1.58765171826707
O           1.82628434374981    2.32716642311831   -2.45792145121151
O           1.69736082519607    1.71153368717734   -0.07581047610066
O           2.12888327488788    0.03792001702815   -1.75103694938564
H           1.79319821083534   -0.67232002150288   -1.12979410385376
H           0.91200582928217    2.28420909177487    0.22320999751165
O          -1.38268553055425    0.74415632380884    1.91267567100394
H          -2.10196404167583    0.71919353575718    2.54422399236099
O           1.45975866771474   -1.78970474574189   -0.03705813055620
H           2.27880468428430   -2.26574049194081    0.11631105532678
O          -0.49203137185552    2.84983116754965    0.48482331514435
H          -0.86853962285621    2.20912591559600    1.12787935865338
H          -0.86155467753802    2.60359736229614   -0.37266155460687
O           1.18498532650588   -0.15187862980551    1.95626477294468
H           1.30522534126510   -1.23372170676334    0.78313298189696
H           1.60965258630021    0.60125210683589    1.52370023535076
H           0.25178877180568    0.10927443724275    2.07657803605411
O          -2.15890330622433   -0.17638782793194   -0.35823357593521
H          -1.51770623118449    0.26675023848219   -0.93803341655122
H          -1.96346699812775   -1.13794776844465   -0.45901953656662
H          -1.73455783328124    0.33474786520659    1.05831656897164
N          -1.30596234320607   -2.72849241515030   -0.71536758754742
H          -1.41306798887058   -3.00693821351112   -1.68228053765811
H          -1.59357069149906   -3.50413447719792   -0.13277883163357
H          -0.31880388741241   -2.55564711196344   -0.54951611695050
