    26
        -50.44731949  Gyration_radius:  2.52044987307 Dipole_moment: 6.558
 S          -1.86430803812185   -1.43111361671154   -0.72358582168949
O          -1.90906796283510   -0.09843391126699   -0.17247428787798
O          -3.06797697708438   -1.95093139822623   -1.25310677420017
O          -0.72219291276642   -1.43241611222582   -1.79919239973964
O          -1.29749011899649   -2.40998256773392    0.32374988754202
H          -0.44726832171739   -2.05624057427359    0.71747530304466
H          -0.83218075663728   -0.53363303317496   -2.26216491228346
O           1.01017616933837   -1.66463880654572    1.24260704005455
H           1.46741479903779   -2.49265266013367    1.40499349705307
O           1.13427192086244    1.82466960380389   -1.23064594319344
H           1.61255230084419    2.64589177447137   -1.34778477503023
O          -1.03850331994680    0.95714708993081   -2.56950200041003
H          -1.69811856088860    1.11185519088596   -1.88146495692705
H          -0.20889621913719    1.36513934997915   -2.23613786995550
O           1.89445494518474   -0.77929863563435   -1.03031366754935
H           1.42742451255308   -1.27560996643246    0.41787353182040
H           1.19638832048839   -1.17670472820652   -1.56830386048962
H           1.76770370797407    0.18554339527583   -1.11087577250899
O          -0.45781707095530    2.00022068903313    0.77978455933577
H          -0.05090307324639    1.66118121269328    1.61181583629919
H           0.56047998892082    1.93983141081642   -0.40679134076643
H          -1.10692079141735    1.32206420963380    0.52975074463161
N           0.58052462152139    0.75654740210758    2.95809184874647
H           1.43376164775333    1.04638673986384    3.41830994641221
H           0.74660349195158   -0.14512197098360    2.52055212609224
H          -0.13011229269991    0.63029991305088    3.66734005161910
