    26
        -50.44731991  Gyration_radius:  2.52084112728 Dipole_moment: 6.569
 S          -1.64301368586869    1.82804283338785    0.12367940158030
O          -0.67892730076943    1.54466811553159   -0.91169541019908
O          -2.61270911831794    2.81973626457651   -0.15173041943521
O          -2.31689771858355    0.46052296689977    0.49419092329952
O          -0.91202883074031    2.17281875459887    1.43648255416364
H          -0.21109882958928    1.48773930045130    1.64259684633392
H          -2.43795134892509    0.00478919111171   -0.40674599668209
O           0.77685252042920    0.33849693864026    2.14940006962729
H           0.74195681947073    0.36093427982955    3.10820131881395
O          -0.15941187597876   -2.15756850729170   -1.20023183187747
H           0.15193881227511   -2.93001979377429   -1.67274196994201
O          -2.22966492291900   -0.54858729663300   -1.82487965459924
H          -1.72561572215931    0.20590605713335   -2.15503494553136
H          -1.57122995257356   -1.26460805328263   -1.68465288144605
O           1.30138161980814   -0.11938577595704   -1.76460518806510
H           0.66791502555425    0.59043460318265   -1.56825392515273
H           2.03047925361800    0.00939194043970   -1.11286748888028
H           0.47439203483311   -1.40435765095699   -1.42897935010782
O          -0.71725923997066   -1.65083528896320    1.41334647437562
H          -0.47599225311327   -1.96851122306208    0.52208662773317
H           0.28374454230804   -0.49015240937425    1.87408522843793
H          -1.52199300500540   -1.12897663882821    1.29158608649099
N           3.07777657398488    0.37816517262412    0.22698202647044
H           2.40416065155180    0.43679781161967    0.98518727029879
H           3.49642835296317    1.29238648910484    0.11346965004068
H           3.80676759776147   -0.26782808103959    0.50112460421827
