    26
        -50.47229102  Gyration_radius:  2.48099291689 Dipole_moment: 2.006
 S           2.05148802568714    0.17987496424986   -0.97585329685258
O           1.67863715424438   -0.28581615109958    0.35607356920174
O           1.33813525938194   -0.53881389239064   -2.01211407371848
O           1.95918623322207    1.62281555441154   -1.08930349133727
O           3.58644928428735   -0.16603170395002   -1.16648709843897
H           3.99823714365432    0.59635185255105   -0.77387093265546
H           0.41024359723298    2.01151395741990   -0.97664833004503
O          -1.67904904256756   -0.24176864260622    2.14226540360709
H          -2.10061395571445   -0.10580827479446    2.99091038554988
O          -0.53914922255227    2.24969506752830   -0.81917642767813
H          -0.72650640462444    2.98388343877289   -1.40616371316202
O           0.03642514333371   -2.21786778870662    1.26055478521683
H          -0.60679129525117   -1.66008194091567    1.73410874478693
H           0.79205145108685   -1.62669115287484    1.07751487191455
O          -2.34379947969540    0.21503597331581   -0.48991402721008
H          -1.51756945592233   -1.03638724912265   -1.03149846841642
H          -2.30225373027178    0.07005221468412    0.47260969620199
H          -1.76836195835802    0.98454034989431   -0.66064382453886
O           0.24806698260482    1.46832700107006    1.75359646365220
H          -0.94572772644239    0.43596175353768    2.07797535406716
H           0.89361637103275    0.87005127685110    1.32253923375450
H          -0.07407746636645    2.03333527256276    1.03783262559601
N          -0.79664883607177   -1.80079050399438   -1.19218543614479
H          -0.51381913768229   -2.16514728106808   -0.23215791006695
H           0.06642393327667   -1.34273432861907   -1.60073863342608
H          -1.14459287749207   -2.53349974669979   -1.79922545981608
