    26
        -50.45106526  Gyration_radius:  2.37010433359 Dipole_moment: 7.554
 S           0.82106776427406    0.62189915762709    1.69584439976137
O           2.23790024003013    0.53324583045546    1.49150759882624
O           0.29341766533086    1.66191731663557    2.53554946160018
O           0.15590620361981    0.87919692489612    0.26278162743871
O           0.21626009219824   -0.69000622182484    2.06113407949580
H           0.11267158029891   -1.85163836894032    0.96977666952441
H           0.63260526098060    1.57833699661292   -0.23519315781161
O          -0.02335589699151   -2.51274555549445    0.24178649538723
H           0.01588135118823   -3.37751338252280    0.65197428675045
O           0.34484409998109    0.11522864535133   -2.48752732892000
H           0.51427292430038   -0.32855652201247   -3.32005881352495
O           0.97981984851115    2.59025243638016   -1.57432082064563
H           0.26528158958101    3.20386289255532   -1.75336544875716
H           0.81713231195674    1.79915517273136   -2.12361443587316
O           2.07089355819457   -0.94704972584274   -0.79495258344327
H           1.01437923164545   -0.25182922397647   -1.84542827180605
H           2.27159485996505   -0.40030843898349   -0.01098500500944
H           1.50934890597655   -1.66991638791632   -0.47821335573497
O          -1.82300988691117   -0.73091315086240   -0.87864860693832
H          -2.05560357519464    0.01334794267453    0.49314104994537
H          -1.18002876573635   -0.23877336761908   -1.42121491408119
H          -1.31690566804319   -1.50863352852164   -0.58242059982552
N          -2.04055398726715    0.31676189777407    1.52920647214207
H          -2.91031997938926    0.13085349361565    2.01824759988574
H          -1.73917527135158    1.28810238524149    1.63049113107675
H          -1.18432443719226   -0.22427721799110    1.92450247044126
