    26
        -50.47229304  Gyration_radius:  2.48035846161 Dipole_moment: 1.993
 S           0.95198426838367    0.40268335883796    2.03090407111899
O           0.65100873727343    1.31761801248460    0.93397695806972
O          -0.21779351301932   -0.34852007880115    2.43805011219830
O           2.11070438066527   -0.42049807148183    1.74382169128498
O           1.35863638885817    1.30125791449707    3.27142953833777
H           2.27461534430132    1.47604091495150    3.08362335054796
H           1.70523430941492   -1.40302071224890    0.54703385556431
O           1.47426561254024   -1.94605974670274   -0.24960765640183
H           1.87774845190228   -2.80391699526569   -0.10815283022627
O          -0.57798803789049    0.61607794413801   -2.59759933587988
H          -0.49189297822585    0.88493910115856   -3.51233499725465
O          -1.60066777934317    1.94183605404169   -0.40208445641213
H          -0.76881162143002    1.95392995495510    0.10964962765813
H          -1.34309599306613    1.62970812820984   -1.28832884129091
O           1.73075084080712    0.60161238174787   -1.38952360672069
H           0.34078498924143    0.65355241468564   -2.20315410178739
H           1.44823787265374    0.96341626551434   -0.52361384671510
H           1.90608252686118   -0.33344518434735   -1.21610725224807
O          -1.06032519168292   -1.74678066529598   -1.26922472374966
H          -0.96319458812218   -1.00654613388315   -1.89511276313500
H          -0.16296459181204   -1.91233354656982   -0.92298835423212
H          -1.83243319658089   -1.04109781612534   -0.06602439002496
N          -2.16189338188108   -0.37478132935355    0.69384027716186
H          -3.07856335929526   -0.62118249312188    1.04798000941554
H          -2.13387506383465    0.60560045305249    0.27831176348902
H          -1.43655442657248   -0.39009011527020    1.46523588123378
