    26
        -50.47229109  Gyration_radius:  2.48074944442 Dipole_moment: 2.010
 S           1.03143757589577    0.58639843333922   -1.94515695720180
O          -0.37495112461387    0.66360858125487   -1.56295909311166
O           1.88302704868435    1.26353633632454   -0.98836982461433
O           1.43842396959761   -0.77475853328589   -2.23662785804649
O           1.17598013810125    1.37704298634232   -3.31134271282017
H           0.95649584930698    0.69939401392245   -3.94179811962081
H           1.38070299526960   -1.58887608686583   -0.85930334041695
O           1.25940270347974   -2.10466615005468   -0.02140971450094
H           1.98568670202108   -2.72937563803469    0.00977953266168
O          -2.17873416094107   -0.65278474404194    1.51594705243181
H          -2.98631721520117   -1.06534634733615    1.82257339858819
O          -1.69220554671885    1.85288943459767    0.46083461073834
H          -1.37562487797802    1.54019425136910   -0.40860053405067
H          -2.05337831670904    1.05887334703193    0.89448597046054
O          -1.40565245498347   -1.65445880704575   -0.76206332089688
H          -0.59476416851571   -2.13691086796995   -0.55001574177754
H          -1.96113774950914   -1.07510979811735    0.63536566818196
H          -1.09558088086300   -0.82922196151914   -1.19018159916744
O           0.47715468401465   -0.75632402387145    2.23123040398187
H          -0.49357304847489   -0.79476145298287    2.15674976333260
H           0.81517703895330   -1.28697767487844    1.48515680025817
H           0.76348681949440    0.75513753926735    1.81314364395218
N           0.77677350346268    1.70505803977258    1.33619519806656
H           1.21192306793705    2.41623925920027    1.91172852386406
H          -0.23218144441680    1.94016269459721    1.08864451523087
H           1.28842890269024    1.59103717892035    0.41599373444251
