    26
        -50.47229112  Gyration_radius:  2.48076144084 Dipole_moment: 2.008
 S           1.89815639158982   -0.70290611880634    1.04606910967797
O           1.71635557301670    0.27888073742057   -0.01833295580653
O           1.06648529674357   -0.40584050010560    2.19467265692889
O           1.76403774557317   -2.06156992301581    0.55682884883534
O           3.40016240148760   -0.57147882318154    1.53503933696366
H           3.84659071368720   -1.14170221088938    0.91828452792850
H           0.23490002075218   -2.25804156300135    0.12517903825844
O          -0.69089506410114   -2.34329687885520   -0.21895875944394
H          -0.97264093675696   -3.23220531198448    0.00290098297860
O          -1.37292072544930    1.19378017405312   -2.03997958838559
H          -1.68288972468009    1.43378918060526   -2.91335336468965
O           0.25322592693149    2.52640749690972   -0.24874205114645
H          -0.33311903470665    2.25218546906086   -0.97674581401696
H           0.96387753297010    1.85657189682843   -0.23484776736275
O           0.44685733296242   -0.66776269065104   -2.15598531571050
H           0.02061352454072   -1.44530720842504   -1.76997559058773
H          -0.66953091187322    0.49434485626973   -2.17096804729895
H           1.04215460084959   -0.33850684826626   -1.45053039831955
O          -2.39212339408412   -0.21862935538067    0.09143492955650
H          -2.21897877296942    0.29245398992541   -0.71982238649495
H          -1.86043716535712   -1.03225280338830    0.00309444212437
H          -1.61930742375841    0.65170984106211    1.18073559021690
N          -0.90945727888431    1.23403300737203    1.71646591860379
H          -0.11944370344333    0.58866174096732    2.00093780904354
H          -1.31897396944441    1.68963915133614    2.52336947690616
H          -0.49269896559763    1.92704270409225    1.02322936124822
