    26
        -50.46913523  Gyration_radius:  2.4762880032 Dipole_moment: 4.000
 S           1.30113218514123   -1.51831585949356   -1.32807866541790
O           1.69457980810113   -0.16507641310286   -0.95797673500897
O           2.37568078584118   -2.41856665646501   -1.58183820940691
O           0.26806888683792   -2.01487875002223   -0.40852413925862
O           0.49052263249597   -1.35843505313865   -2.70919267224359
H           1.16656256526491   -1.57320961345025   -3.34175651412611
H           0.15179789557829   -1.63244150202341    1.18290791442534
O           0.03385845116274   -1.33050485707527    2.11540580260717
H           0.10213454631146   -2.11493907186892    2.66105146159552
O          -0.24225362473942    2.49251104683934    1.04310336968723
H          -0.07028425848853    3.34440877380673    1.44440264976990
O          -0.09300763534497    1.67771276716416   -1.58883362961630
H          -0.15519837746887    2.17480402199329   -0.75288036162519
H           0.69402802898556    1.10114592866936   -1.48376506440595
O          -2.00126829573251    0.45312608540862    1.54851665915605
H          -1.37446459816132   -0.17606150774043    1.94698156725127
H          -1.51121223402238    1.29346619983204    1.47610252761975
H          -1.98625035497513   -0.03263413700306    0.02284259827120
O           1.68657321648883    0.81315586642613    1.53283299439230
H           1.86878026591186    0.48850408232295    0.62879257526252
H           0.54210384008652    1.91106071238367    1.26734999208297
H           1.23162009094589    0.07791356332873    1.97232517281545
N          -1.66100826093273   -0.31558032470636   -0.95032779831424
H          -1.13282873993053    0.52006946217897   -1.36160187679984
H          -2.42408392523141   -0.60987135305727   -1.54853607830819
H          -0.95558291413079   -1.08736340121564   -0.82930354039112
