    26
        -50.44982218  Gyration_radius:  2.46798950582 Dipole_moment: 4.175
 S           2.08906343339541   -0.17861347852191    0.25542287775066
O           1.11642495538463   -0.19525908323454    1.32910391239651
O           3.26441383327704   -0.94097872336038    0.47550804183849
O           1.35079798558488   -0.69693786121610   -1.03275150087031
O           2.40477722341944    1.25148485896860   -0.14058643674235
H           1.48579192154687    1.73464577243910   -0.24386828480830
H           0.88953453639821   -1.55627131720055   -0.82176824918977
O          -0.07453514359893   -2.80527753181839   -0.51448501361820
H           0.36971391957447   -3.46512310491605    0.02048744177408
O          -1.80247026955380    0.54356742121071   -1.11735214394964
H          -2.57714642580910    0.95696906084322   -1.50136969911512
O           0.13854132743860    2.30764272673812   -0.27901844739816
H          -0.07560158525210    2.38912169188749    0.68762474851446
H          -0.50791874303984    1.66839459561577   -0.63390803666333
O          -1.35353120948392   -1.15773657927326    1.01648849314172
H          -1.70158312563681   -0.51396143202962    0.37769211669258
H          -0.68596220995317   -2.30024606382502    0.10299469242619
H          -0.49983140025445   -0.78301011607328    1.30928491233788
O          -0.77228961500601   -1.23550720700830   -2.80824084778379
H          -1.45796060547932   -0.09100049712924   -1.79283272771642
H           0.13612579929568   -0.91783301066788   -2.84171216896723
H          -0.74441440649996   -2.04558176543357   -2.28338015687587
N          -0.27529692721325    2.11874319828779    2.36185222861755
H           0.27890480471580    1.26539323280604    2.32645338289977
H          -1.17873253080688    1.88560150122412    2.75422326531176
H           0.18318446756968    2.76177370179677    2.99413759988033
