    26
        -50.44982215  Gyration_radius:  2.46793264022 Dipole_moment: 4.173
 S           1.09489088067206   -1.71034135954825    0.57973645749208
O          -0.13757029766128   -1.73270580898414   -0.18156436130623
O           2.00360429435740   -2.76609203021326    0.31392573657610
O           1.78399233662199   -0.32748008407976    0.28628279464042
O           0.79139629438988   -1.58046778268900    2.06052054198671
H           0.09542022183219   -0.80812484452519    2.14828542441436
H           1.83289858215012   -0.18964021960927   -0.70075651273663
O           1.73858082164699    0.22508395301116   -2.25108926081310
H           1.98024643300474   -0.50569074760926   -2.82247017563706
O          -0.56359570589616    2.11098641295882    0.13735036779605
H          -0.96123264728378    2.96419383268846    0.31728357514249
O          -0.93082224846412    0.23646699614566    2.12108102849428
H          -1.72006632081250   -0.25959054041373    1.77758502987758
H          -0.73262015786325    0.90882079724514    1.44204794290212
O           2.02763818128154    2.39552510553437   -0.40187968139038
H           2.12037815315771    1.96634631068297   -1.26191532044555
H           0.39468240634013    2.27853493267935   -0.03947899764510
H           2.39302820072706    1.77499743052333    0.23745111806469
O          -0.81992595479817    0.22190956670980   -1.86650431103042
H          -0.93206088858413    0.95194604812456   -1.23544774246541
H           0.73533379404629    0.28344800518567   -2.26976382078914
H          -0.72556815299479   -0.57667481323928   -1.31121360689482
N          -2.77910516786779   -1.27007673663358    0.89828157081307
H          -3.41840413647533   -0.89224515552538    0.21049684333492
H          -3.26504838039859   -1.99325833634475    1.41250558213201
H          -2.00607053120965   -1.70587093205788    0.39924975743475
