    26
        -50.44541515  Gyration_radius:  2.49135525025 Dipole_moment: 6.415
 S           1.94936099048953    0.31320693473701   -1.52486011766141
O           2.18517343736259   -0.74221894672890   -0.58034620220093
O           2.62223677377875    0.26103953931475   -2.76886335448258
O           0.38720054541308    0.37232007026347   -1.76858212830892
O           2.17994711637062    1.67944820030021   -0.85464400957522
H           1.72643449540182    1.62375660220526    0.04033687949076
H          -0.03859511770833   -0.50510069964869   -1.55989618230536
O          -0.99977849330508   -1.73534131095879   -1.14290348444593
H          -1.63190488687033   -1.94472961191807   -1.83234606413746
O           0.02881848177685   -0.86659961419374    2.34499749368516
H           0.25229735928211   -1.10054143363576    3.24631168897277
O           0.77945326318426    1.50244257931389    1.28890840963621
H          -0.08911127997327    1.77245768465279    0.96235425557264
H           0.65698613894694    0.61447259710508    1.68476104378371
O           0.90314622963156   -2.68822520825056    0.70291823228889
H           1.57425033388083   -2.12265035592393    0.27834605923283
H           0.38141887604379   -1.60486805788338    1.76678169483861
H           0.20103895563819   -2.75605044374633    0.04328777744277
O          -2.11773201820024   -0.32981303519738    0.74616689009167
H          -1.97209611873909    0.59251225742544    0.47589286493615
H          -1.50714651666249   -1.26568305405877   -0.41735817454158
H          -1.49460065027952   -0.50733651858889    1.47297465030674
N          -1.49596685434601    2.20718223624250   -0.40867483687949
H          -0.88655542085022    1.79272050763300   -1.11229964389313
H          -1.17448438424055    3.15820194000601   -0.26168017567006
H          -2.41979123602980    2.27939712151321   -0.82158357610879
