    26
        -50.44541492  Gyration_radius:  2.49145408458 Dipole_moment: 6.415
 S           0.02696220123377    0.49973167186313    2.44452872380092
O          -0.79959958101361   -0.63697699387443    2.15090320406895
O           0.62143465548923    0.58209265695475    3.72625706538375
O           1.15255468012104    0.54989571050553    1.33370305168904
O          -0.73530615759797    1.79917313135824    2.12947055114438
H          -1.17249710211380    1.64814513535181    1.23738513696909
H           1.29855461979740   -0.35222760088230    0.93423038530048
O           1.62233498946093   -1.63699312922606    0.00905062232868
H           2.56488560180661   -1.79188661383207   -0.07070394110379
O          -1.83262074623757   -1.08758595214115   -1.30656617867844
H          -2.67187900741871   -1.40141671813921   -1.64448703136490
O          -1.59141708658985    1.38714547122193   -0.25475893201479
H          -1.77686975118779    0.46277636425332   -0.52225172239062
H          -0.82748124899983    1.66851826000434   -0.77539434260424
O           0.69494617703888   -0.44496876121132   -2.11518411973027
H          -0.24695928116431   -0.67823357455380   -2.03579890791454
H           0.76430656497144    0.50206325412493   -1.90690372254556
H           1.31744485288498   -1.25063201477246   -0.86401011812487
O          -0.92842092129417   -2.72360829373438    0.50573324467474
H          -1.02871428128601   -2.10606205980163    1.25345602217206
H          -1.53449600962805   -1.75910936718771   -0.62546700691506
H           0.02307646136436   -2.74175832311708    0.34141883431534
N           1.08255413596287    2.20298885957901   -1.12046656926298
H           0.71104800969878    3.14209732518099   -1.02314472601545
H           1.96166209336812    2.29461233142671   -1.61840747898957
H           1.30449614132029    1.87221924062628   -0.18259201421681
