    26
        -50.44541510  Gyration_radius:  2.49146651534 Dipole_moment: 6.415
 S           1.07343726515633    0.98243544451978    2.02672866620960
O           0.88802278063886   -0.43450116252161    2.16631703160035
O           2.12683203712954    1.59415414446646    2.74726910860469
O           1.24827210370882    1.27413512652430    0.48166848365168
O          -0.25181113684142    1.71531815957782    2.30179726542118
H          -0.95690624031119    1.19677618877588    1.80809846524014
H           1.57265636616320    0.46292260139475    0.00062674608931
O           1.92669634420423   -0.71951566742862   -1.04236126742579
H           2.61716541765317   -0.46111533522218   -1.65497876416461
O          -1.44786875711273   -2.03520191715893   -0.11816443207933
H          -2.06158815182463   -2.74951406069155    0.05538745070291
O          -1.91441699600187    0.45919854424218    0.80350899995101
H          -1.79319378445548    0.92490445078251   -0.03459098653805
H          -1.74027614169885   -0.48682401362191    0.61627129368741
O          -0.42031132915252   -0.54609910637494   -2.16285251411994
H          -0.92348240287050   -1.14404474833083   -1.58218202868919
H          -0.71747026000796    0.35603650297477   -1.95583381883334
H           1.06525794790705   -0.70554296910239   -1.55430122865855
O           0.93091545814584   -2.67179544185806    0.72725347961800
H           1.51736135000367   -2.30868841305492    0.05130411257385
H           0.95944281534235   -2.01310398156848    1.44544992389280
H          -0.55571384494767   -2.34221952787890    0.21874566141737
N          -0.89981993786198    2.15131680148379   -1.35682592239623
H          -0.08803977519745    2.16405287124838   -0.74117596643008
H          -1.55974300998454    2.82940548379427   -0.99057892139626
H          -0.59541810774398    2.50751002507667   -2.25658083792880
