    26
        -50.44639627  Gyration_radius:  2.51389682256 Dipole_moment: 3.604
 S          -1.56140558010509    1.30399903176978   -1.16582195347488
O          -2.55549923780616    1.00095943641118   -0.17270164409805
O          -1.83421592036044    2.30524758978778   -2.12603650897909
O          -0.23962637553877    1.67441560101774   -0.40964379949586
O          -1.17760832214872    0.00264781803734   -1.91630547352599
H          -1.01726325177925   -0.74083392109434   -1.25972759469904
H          -0.29954308789079    1.42374413817982    0.55513886668460
O          -0.40467072952025    1.04389366938037    2.10707226463490
H          -0.84990302461408    1.76653072677005    2.55325281802337
O          -0.63952203106209   -1.91941900082816   -0.29177935124878
H          -0.76567403510219   -2.75086011987957   -0.75225427473579
O           2.12387306722661   -0.10473914338730    2.07040950051618
H           2.17948320878139   -0.62797357954265    2.87165325841089
H           1.29221749354486    0.39274806377550    2.11728562139716
O          -2.14164340348757   -0.81633683555510    1.72617998150036
H          -1.06486986035183    0.28022292008241    2.07738314824995
H          -2.59713651195603   -0.22661463919640    1.09516209494970
H          -1.65785372438396   -1.44401326363164    1.16567348622951
O           1.86119256594262   -1.49483457587776   -0.26316214483700
H           1.95910811987763   -0.83532648915050   -0.99375004095988
H           2.08118416139424   -1.01214398016324    0.55651241989765
H           0.37754614494188   -1.78478151875977   -0.23496500345928
N           1.80688767775824    0.42698765795211   -2.16910248714206
H           1.15508605076033    0.15049694590099   -2.89376287473236
H           2.62054246052888    0.83052326825346   -2.61615214438975
H           1.34931415534198    1.15546020974398   -1.63055817471578
