    26
        -50.44639628  Gyration_radius:  2.51411041093 Dipole_moment: 3.609
 S           0.64994968922730    2.08330901316089   -0.85992930090214
O           0.87146879012978    1.48350630271001   -2.14733224031638
O           0.66823929814179    3.49252263173770   -0.74783201857506
O          -0.72280266063079    1.55093252105939   -0.32307374352233
O           1.66759389624568    1.50165309033442    0.15517326132271
H           1.70712272986644    0.50123695877329    0.07088479232079
H          -1.03961055373738    0.77327083024820   -0.86337334776850
O           1.74012587726697   -1.06972659103263    0.07669919795831
H           2.58708721383462   -1.36066576673127    0.41910758758500
O          -1.55961647879052   -0.45818947466707   -1.74538022064381
H          -2.01305881705649   -0.09741286489173   -2.50941489037032
O          -2.20918597817690   -1.91028970277159    0.53100885454616
H          -2.09024517919188   -1.36663296465812   -0.26381890412744
H          -2.32799505816994   -2.81371690510308    0.23340611781428
O           0.79977037324040   -1.15249154656140   -2.50252197689426
H           1.00884525118463   -0.20770456865382   -2.63339650403398
H           1.23015504069945   -1.38215278382403   -1.66330490690717
H          -0.68744598901791   -0.83622025246467   -2.08641870531464
O           0.06356924976950   -1.39848465536183    1.95168873648166
H          -0.80211861601223   -1.61456998034079    1.55517457672865
H           1.05878988865475   -1.25985158805865    0.82195802575483
H          -0.02736370486390   -0.47753966490633    2.30084098071023
N          -0.13094875468061    1.22931902940628    2.57278350371952
H          -0.60249881413916    1.60519739223200    3.38583476316807
H          -0.63165111294830    1.53986513575443    1.74636991996556
H           0.79182441914314    1.64483636462391    2.52486646131101
