    26
        -50.44639636  Gyration_radius:  2.51423240308 Dipole_moment: 3.604
 S          -1.16750036567002    1.92905079755103   -0.64812178853262
O           0.06930274734494    2.54136289894273   -1.05010427385318
O          -2.38701907012765    2.55267588813263   -0.99841143937848
O          -1.16982281581981    0.46414869215036   -1.20548554441952
O          -1.15449871858870    1.71468911145841    0.88753896597722
H          -0.28016593863940    1.31025239774714    1.17267187553962
H          -0.25987076905120    0.20256291757779   -1.52265541686535
O           1.01291885283363    0.57475635079843    1.67950953508255
H           1.14668498446957    0.78549601372048    2.60522091390573
O           1.19395938452371   -0.20830127555442   -2.05417130650174
H           1.27849544204730    0.11980485251307   -2.95122880499706
O           1.05290986573041   -2.66595100879093   -0.76848504964538
H           1.06045243789615   -1.86067855768209   -1.30966992320875
H           1.95112714225472   -3.00041382748962   -0.75681022079958
O           0.06557698897136   -1.77749725210886    1.61516032607543
H          -0.89664593691830   -1.60066143784998    1.46960979639572
H           0.37823668254849   -2.21146827767936    0.79832554259215
H           0.68365031945014   -0.39837689372504    1.66087642112320
O           2.42948501171885    1.43794999768535   -0.50963662707838
H           1.74712474413514    2.10512578710057   -0.71621879488134
H           2.19249754727800    1.11440445547688    0.37432651199125
H           1.78455279012581    0.37794997637417   -1.48190929154779
N          -2.46354314607025   -1.00985962399558    1.02960254887696
H          -2.30747671773829   -0.70095980176146    0.07550228367920
H          -2.68516252559310   -0.18139654113110    1.56908097986590
H          -3.27526890253135   -1.61466564863900    1.03548278851905
