    26
        -50.44639633  Gyration_radius:  2.51426668335 Dipole_moment: 3.605
 S          -1.09559368142871    1.88990995481778   -0.85594834431321
O          -2.26014102282099    1.09168702855643   -1.12590632448961
O          -1.18756635412090    3.29639217751414   -0.96655315993703
O          -0.60076093572807    1.52704713901838    0.58632383954280
O           0.07263039251890    1.40688345766071   -1.75392482915973
H           0.13630186320719    0.40459895879135   -1.72849308403456
H          -1.04728616577691    0.69773685800779    0.91790394789538
O           0.37051219079657   -1.14751633593055   -1.64975923855780
H           0.81836126496874   -1.43424988285378   -2.44754460960797
O          -1.78190635658971   -0.61821472599858    1.45945810399222
H          -2.62434907652116   -0.34877594189273    1.82989186931623
O           0.61920697992111   -1.67678740922539    2.36940326284925
H           0.44523996426803   -2.60575546137662    2.52921641727782
H          -0.23280959671169   -1.26430302750833    2.15660120538324
O           2.13215270153059   -1.09343440334464    0.17464034879018
H           1.07812139726355   -1.18372663918242   -0.90563884515783
H           2.33624269880579   -0.12691856697975    0.22560418506048
H           1.70195940029254   -1.31501296623893    1.02263681527689
O          -2.23723936779238   -1.55878763840014   -0.89217055032569
H          -1.34149708827298   -1.68589846904083   -1.24396029928064
H          -1.99299314975841   -1.09469185321097    0.59433648315998
H          -2.48569871785375   -0.65855208401353   -1.17717485584694
N           2.35004252687581    1.60426956239546    0.22854761067438
H           1.44960916327624    1.81741020464065    0.64554224987266
H           2.31789111604498    1.95234774067260   -0.72240929837077
H           3.05956985366068    2.12434233296016    0.72937712986215
