    26
        -50.47168676  Gyration_radius:  2.491049056 Dipole_moment: 3.002
 S           0.56157501173931    0.69071665109352    2.12336613860477
O          -0.84358693513363    1.04573998698708    2.29066535245998
O           0.84056766129632   -0.70343095217649    2.35607049514989
O           1.05743374864147    1.16032562161700    0.83177878908112
O           1.34804547559694    1.50478847058755    3.22896535295342
H           1.00712353610956    2.38192887600285    3.09207763298314
H           0.56020917743007   -1.85259639439925    1.28235473222652
O           0.43073056354607   -2.52678537555330    0.56727454994494
H           0.43982095723806   -3.37947557740805    1.00432252715877
O           0.38089538643958   -0.20987824647923   -2.67831991193157
H           0.77002747104458   -0.36802280813335   -3.53852464065118
O          -0.23296912453830    2.10858643906349   -1.33090394205742
H           0.37142877352779    1.94626645140346   -0.58054488408489
H          -0.00239591615681    1.42552161570398   -1.98658512384766
O           2.08001414332977   -0.71492543725226   -0.77329977551695
H           1.85155209242164   -0.00183096121597   -0.14220556429735
H           1.73372572923369   -1.52455406945164   -0.37073818383546
H           1.09572220168323   -0.40555579585026   -2.00402242740868
O          -1.46393792890614   -1.50563868130430   -1.09761418465174
H          -1.95068228956980   -0.17266160269523   -0.37445868357438
H          -0.90211096486668   -1.14415512993494   -1.80702334226654
H          -0.85002775408103   -1.97290061166802   -0.49897068244623
N          -2.07921587364740    0.81051624798377    0.00883634604563
H          -1.48880263198164    1.45410892772981   -0.60123244570791
H          -1.65932361217749    0.87256012405975    0.98143177748984
H          -3.05581890835394    1.08135221151226    0.01730010826812
