    26
        -50.47168602  Gyration_radius:  2.49115534751 Dipole_moment: 3.016
 S           0.26544157569660    1.13663548076978    1.98397288238672
O          -1.16797807413842    0.95423518940077    2.18650596077490
O           1.05796569163466   -0.00155065065341    2.37435841587830
O           0.53738817479062    1.57363332213888    0.61681837898077
O           0.68525236070926    2.33236198814992    2.93157660451085
H           0.01354202231418    2.97447825904914    2.72933441933049
H           1.23217815894754   -1.30734406002708    1.47065060550888
O           1.36634948051670   -2.07201774511693    0.85422014005494
H           1.70601997900519   -2.78811114335960    1.39269064704947
O           0.42045952360383   -0.41662239629499   -2.64937364685520
H           0.83636211483109   -0.52873475847129   -3.50432618952868
O          -1.02595484779115    1.65970343337376   -1.57170126232264
H          -0.55503706722427    1.03023738670257   -2.14777999737232
H          -0.40205225874771    1.84340811411865   -0.84261244985883
O           2.19292522913782    0.02358092357863   -0.79578082413902
H           1.15911703964054   -0.23357336617395   -1.99750587390670
H           1.71232754607458    0.67714117837703   -0.24735012534206
H           2.18316978371637   -0.79313682036427   -0.27568984208163
O          -0.78245733457465   -2.08203658308585   -0.81521074501698
H          -1.73749783073808   -0.94510253933947   -0.23904921371621
H          -0.40452106943611   -1.63744321907785   -1.59551627283047
H          -0.03392954856765   -2.19541736438058   -0.19845038021602
N          -2.22977972585510   -0.04044033129797    0.02442115354296
H          -1.86120795619355    0.30849954540145    0.95621775264913
H          -3.23577377880978   -0.16005323796545    0.05393622409824
H          -1.93230918848631    0.68766941464862   -0.69435636156071
