    26
        -50.44862199  Gyration_radius:  2.41671931964 Dipole_moment: 4.699
 S           0.83680886809267   -1.88764445141795    0.22863818428583
O           0.88705173479034   -2.16044832129530   -1.27897388973320
O           1.87509591687840   -2.58680778542698    0.89281519205606
O           1.05191681264974   -0.35036012752217    0.33413337479505
O          -0.50199384810828   -2.10192858256803    0.72932912432113
H          -1.73531076629646   -1.20561627463196    0.14830656870829
H           1.82637081974373   -0.01266119963438   -0.19530748427706
O          -2.41579809837977   -0.64470581533323   -0.29771925360623
H          -3.23602824408701   -1.13907726812902   -0.26468742458397
O           0.31659806522672    2.04600080314831   -1.40033763352017
H          -0.05151997156123    2.83781339666004   -1.79512895612244
O           2.76248231334151    0.95704333106206   -1.07225143936661
H           3.27971122777198    1.52392832672269   -0.49629223358035
H           1.98165851541265    1.47512684092396   -1.35284446798053
O          -0.60253502457624   -0.37544564061496   -2.28501649651646
H           0.28863862267401   -1.48028748124611   -1.75867082918506
H          -1.39473384710690   -0.42973688319054   -1.71645932995289
H          -0.19078658576209    0.48764018084686   -2.07816923356096
O          -1.16606856576694    1.66113500234126    0.70376409660071
H          -1.79261710822411    1.00827287076583    0.35953787347088
H          -0.75669488431944    1.20913913252154    1.47497512497116
H          -0.17436727928666    1.91501306055498   -0.53372730483187
N          -0.35836493267601    0.03638647253609    2.77312318732690
H           0.61115286560337    0.12041906372554    3.05097355136739
H          -0.43096294004273   -0.81097584406794    2.21686928912655
H          -0.90970369606890   -0.09222283661219    3.61312041979524
