    26
        -50.44809719  Gyration_radius:  2.47100621531 Dipole_moment: 6.461
 S          -0.17387214255892    0.33097627852354    1.58630811501332
O           1.19419633464769    0.39709668398060    0.87042849392842
O          -0.10796655393823    1.06175624558477    2.79462532430826
O          -1.10856951431862    1.06209781746496    0.56214752433999
O          -0.65710969151742   -1.02306539882512    1.61868935305873
H          -1.04068601509949   -1.79590757690735    0.24546943673881
H          -0.59307705074156    1.83927057541449    0.17977016623547
O          -1.13972710318433   -2.19986961148928   -0.65212175382435
H          -1.30766333219637   -3.13276840287858   -0.50830372029392
O           0.05221472145834    1.04480246339400   -2.74419905618205
H          -0.00712862015502    1.28431341661626   -3.67003171170234
O           0.44600261965777    2.70538404536114   -0.62816793585611
H           1.28652635166827    2.46919291350872   -0.22431146993039
H           0.40301749387759    2.23990814730632   -1.48906475054886
O           1.17284055822995   -0.94698733298783   -1.26073136936983
H           0.91947345753257   -0.27944734555005   -1.92546298046909
H           1.23192969205428   -0.20238859018074    0.02811876473835
H           0.40617780663321   -1.54751263938949   -1.16800029518244
O          -2.19134044748491    0.06897588964308   -1.80618875306320
H          -2.22342981979806    0.53473849947152   -0.95990077055706
H          -0.85131264942022    0.71641550202381   -2.47578052088422
H          -1.99521426353168   -0.85368429313076   -1.57389027075424
N           1.73503608356619   -1.13944169500985    3.43427346220692
H           1.41110337877915   -0.40871478731833    4.05693068572674
H           0.90484351107109   -1.54906169561232    3.02477961805528
H           2.23373520478666   -0.67607912896052    2.68461441421129
