    26
        -50.44862204  Gyration_radius:  2.41650563688 Dipole_moment: 4.692
 S           0.66391200379563    1.16217163549556    1.58769263763908
O           1.52707413516302    2.06579985813383    0.69969822445572
O           0.21453757263222    1.87287745539519    2.72831628807080
O          -0.53302288490913    0.77703621391055    0.67138261622935
O           1.34580242051893   -0.08712703377531    1.83893424945634
H           1.73670557368319   -1.06067249503430    0.58916828387747
H          -0.95493795472189    1.55353336207763    0.20967205238119
O           1.96743509418305   -1.55460277889778   -0.23506849231268
H           2.75628370377454   -2.06020441730907   -0.03407333591439
O          -0.88471786605287    0.30028629091861   -2.31839287552856
H          -1.01253016462845   -0.04870739724673   -3.20174174463746
O          -1.72681044461805    2.43078791998568   -0.89468018391054
H          -1.48883930045722    1.78514932916734   -1.58987496870335
H          -2.67509074210640    2.36287111269942   -0.76516700695234
O           1.67545163665477    0.81717510571090   -1.49964832116947
H           1.90226321002329   -0.08573703562634   -1.20440126675272
H           0.76542465095121    0.75562408778339   -1.85354236275247
H           1.64689368048478    1.61533623707440   -0.21314793483728
O          -0.76337391435511   -1.82980402807661   -0.82747806803238
H          -0.92219114196727   -0.49085318885717   -1.70041588171640
H           0.19592622051369   -1.93735480908597   -0.75410643433631
H          -1.06284857815881   -1.75250516026453    0.10581535464534
N          -1.12550510268403   -1.71778002940841    1.89877625205456
H          -0.25621741247312   -1.21497561206319    2.05451579054914
H          -1.11962622177765   -2.54289867830536    2.48631398148390
H          -1.87199816346521   -1.11542594438187    2.22145316672229
