    26
        -50.44809716  Gyration_radius:  2.47091038986 Dipole_moment: 6.460
 S           1.32048189551949    0.90915465715845    0.29209076061150
O          -0.10748058849910    1.38165898624736    0.64762286127463
O           2.26216161105250    1.66739392118536    1.02468385992572
O           1.30520661964130   -0.57328790760705    0.80116177893924
O           1.47229931470515    0.80340310040139   -1.13402639945314
H           0.61638366119268   -0.28651166867645   -1.97622053044129
H           0.79414167944813   -0.59168918383715    1.66973718647754
O          -0.02982771487071   -0.90715370445241   -2.39566922909670
H           0.05314376018530   -0.77958872622790   -3.34225126068469
O          -1.88415355165116   -2.00669063685270    1.02163836655631
H          -2.48464845671321   -2.72065854754473    1.24004117377247
O          -0.36475067858905   -0.54291923195840    2.73608691369589
H          -1.03100357377704   -1.08836645056648    2.26884519797817
H          -0.66660703609119    0.36918753273105    2.68776491019600
O           0.15921702830595   -2.80673145380227   -0.41047959846021
H           0.06430432843508   -2.36098276349258   -1.26839802381868
H           0.86553201162342   -2.32548251399021    0.04072217821681
H          -1.13164446145424   -2.41368215152608    0.50756780780349
O          -1.84086706758572    0.12237504777814   -0.67852853532599
H          -1.34681080729794   -0.26432213300844   -1.42909266905492
H          -2.05973349803151   -0.61891225556778   -0.08338905089059
H          -0.83317847154896    0.92771261349959    0.06672498146484
N           1.17666736858911    3.76622312712290   -0.72734014432502
H           1.37535075401171    2.96097561804269   -1.30768401440353
H           0.36337925319784    3.53313734901052   -0.17096866021533
H           1.95243661032381    3.84575740603537   -0.08063986073520
