    26
        -50.44809714  Gyration_radius:  2.47087369682 Dipole_moment: 6.459
 S           0.89671685020083    0.02712475488343    1.36054544056016
O           1.51868830482583    0.17983000182686   -0.04585234233937
O           1.80421242365131    0.51023509799283    2.33083567856224
O          -0.34913426282742    0.97391787027702    1.26606259785283
O           0.34198939054994   -1.28974927512770    1.52234697655050
H          -0.91907568201529   -1.77095686789619    0.62308188139076
H          -0.07185640137528    1.79110290003955    0.74541187627682
O          -1.50029314359422    1.54833625459343   -1.99285695893182
H          -2.08276295851177    1.96318616731370   -2.63057661594618
O          -1.61126465968595   -1.99161640773794   -0.04834182594828
H          -1.79232620089862   -2.92775455147364    0.05211756087303
O           0.35928856701838    2.75848696937970   -0.42161258472901
H          -0.27545540462627    2.46798865530375   -1.10888518255529
H           1.22261363541977    2.41992194142457   -0.67733986644639
O          -0.01632067248139   -0.73048214877541   -1.82450699677360
H           0.93730464125467   -0.24851660431907   -0.78671913781693
H          -0.64003698918356   -1.30943910286300   -1.34206527070059
H          -0.52317624523757    0.06081274646980   -2.08646508212706
O          -2.79736580464182    0.49288790946005    0.02434489484723
H          -2.08052353895834    1.20751569090505   -1.25564908850686
H          -2.64006920304819   -0.46367537946662   -0.03895751830008
H          -2.22918494354505    0.78872702611903    0.74811631354147
N           3.29243593379750   -1.83816013903361    1.37032375094601
H           3.53507272386331   -1.22908898856428    2.14277122027172
H           2.33781894035773   -2.13287894471755    1.53327451414198
H           3.28270469963022   -1.25775559608282    0.54059576542452
