    26
        -50.44809708  Gyration_radius:  2.47105636961 Dipole_moment: 6.459
 S           1.59272340098956    0.34005732982151    0.05160477079049
O           0.93796530271705   -0.38403046723752   -1.14658546945078
O           2.83890796129911    0.87536630351191   -0.34691801770357
O           0.57025064724521    1.49587785274125    0.32684558113182
O           1.53513967346194   -0.48527882386402    1.22783307896649
H           0.10865373635301   -0.86597432153379    1.89941526636517
H           0.25097988449843    1.83927244029838   -0.56535955647207
O          -0.81215589216211   -1.12034634629070    2.15638458764139
H          -0.72441998143685   -1.78456158257150    2.84219111541997
O          -2.68077423931527    0.87238787164942   -0.82042350195918
H          -3.59464415408792    1.11872790346407   -0.96966654582767
O          -0.46682383184921    1.96039479351745   -1.96285292914741
H          -0.04146752054234    1.27455176914706   -2.48635868854634
H          -1.35170994010802    1.62124156067796   -1.71468471919722
O          -1.25901348222919   -1.42823105367628   -0.48854835344713
H           0.06824963000380   -0.87896857088986   -0.88474301219005
H          -1.22930289196652   -1.47545994191137    0.48805104882107
H          -1.89775833334782   -0.72497519686433   -0.70995054931594
O          -1.88985659926004    1.35869760119423    1.62984018947098
H          -2.46786905638887    1.12283386840970    0.12203015264940
H          -1.69728231820901    0.48851191657145    2.01650760833444
H          -1.02285230992457    1.74221753702897    1.44199900921199
N           3.43852387595351   -1.99783446189195   -0.53896114017727
H           2.73420027012175   -1.89366616075991   -1.25898856526700
H           4.08462891116159   -1.22633518569357   -0.65685640570147
H           2.97570727701665   -1.84447660484538    0.34819503559163
