    26
        -50.44990183  Gyration_radius:  2.69066913665 Dipole_moment: 8.235
 S          -0.36914696430140    2.53831954403688    1.38367993489357
O           1.05719897380641    2.25973426397370    0.85648387821918
O          -0.63830675316115    3.92233404789391    1.26289193353952
O          -1.26614959236649    1.71393308478364    0.39993683212301
O          -0.54326562882238    1.92268804112938    2.67219649270678
H          -0.55672298900688    0.31626921920681    2.77772595636737
H          -0.85392852176240    1.82073692605472   -0.51796685293015
O          -0.44538042854467   -0.66912378747152    2.76543142251161
H          -0.46213420272135   -0.94822520199668    3.68208829935859
O           0.46651957209609   -0.82854643357639   -1.14868952279196
H           0.53953947367849   -1.52824622076257   -1.83472398309331
O           0.09232087561442    1.73283076254651   -1.75125876884563
H           0.29923524754256    0.76869010475805   -1.67745587991260
H           0.86937819287428    2.20369549786860   -1.43480103974346
O           1.67511710427975   -0.16916327786743    1.15004166171908
H           1.35800745315009    1.28845851943106    1.03711772763263
H           1.02508166806828   -0.50905279410079    1.79497445925853
H           1.39440319057159   -0.51451296552265    0.27598709059372
O          -1.72791274159378   -1.04915980635170    0.34655438005360
H          -1.99079797411369   -0.12095412038169    0.29854308111725
H          -0.38663273884248   -0.99844790301810   -0.68091530115382
H          -1.37685454865262   -1.15706991157901    1.24517645201793
N           0.48199478818542   -2.80299083065720   -3.04024859053463
H          -0.31127243969811   -3.40093650543568   -2.84308168026358
H           1.31405412972066   -3.37946183050558   -3.05412550632653
H           0.35565484399205   -2.41179842245298   -3.96556248650052
