    26
        -50.44990165  Gyration_radius:  2.69093767392 Dipole_moment: 8.249
 S          -0.44627812912966   -0.95908559755776   -2.71733555516212
O           0.69117039254844    0.07406024613483   -2.54715582870793
O          -0.07504303147363   -1.88546293019966   -3.72055598895200
O          -0.49198132497291   -1.65376401949571   -1.31477655741664
O          -1.70734734029835   -0.28023247210864   -2.85270214936289
H          -2.30191602418026    0.52711146971563   -1.59282682857100
H           0.46939046365320   -1.75385272631152   -1.01544137400853
O          -2.53964117414015    1.08377101904895   -0.80727864629967
H          -3.32582368370732    1.57142990865246   -1.05736246361777
O           0.87149881546649    0.29562568016978    1.17342127933523
H           1.20306709473976    0.42069969356778    2.08996477805360
O           1.91659452372319   -1.47074592022048   -0.51554835065258
H           1.67699571654520   -0.81650858546509    0.18606049697921
H           2.28081171257524   -0.96436542700294   -1.24807107940208
O          -1.59676082962624   -0.70380803546848    1.07812698796175
H          -2.09833806348492   -0.01704317147530    0.60987097049720
H          -1.42004781409551   -1.37542770656419    0.40681733155203
H          -0.02944013803887   -0.09866928238369    1.26498498725763
O           0.06433395141895    1.84251274113645   -0.85947402739270
H           0.42457505649452    0.84821790838115   -1.91809741365620
H          -0.90477244168937    1.76103305458710   -0.77014145518219
H           0.44516226675670    1.43777023398941   -0.05113598705127
N           1.66052931894670    0.52330642621040    3.78147471466907
H           2.39868196975377   -0.13702894758339    3.99160553924971
H           0.85748879551066    0.28530376230747    4.35073900399622
H           1.97708989671431    1.44515262794043    4.05483760589754
