    26
        -50.44962126  Gyration_radius:  2.52302198762 Dipole_moment: 3.570
 S          -0.93423216336145   -0.92266507768476    0.33629784465420
O          -1.64186050704920   -1.07885451341716   -0.91974536586118
O           0.50336686263796   -1.08442179612707    0.19080921031435
O          -1.23950125163045    0.36522894027320    0.97269332985654
O          -1.40015642172680   -2.04204848078396    1.32409613599529
H          -2.37415758955974   -1.89528703245711    1.37379961055583
H          -0.30747550274647    1.44359464763298    0.50398219317882
O           0.30767894306054    2.18225047247239    0.16928880792607
H           0.16841414088860    2.92039238120899    0.76574368646398
O           2.45864908796952    0.01912965351785   -2.08975252049926
H           2.79957220153974    0.48056049251236   -2.85897473260242
O           2.41259018412654   -0.65581516784158    1.78356972120162
H           3.01141138507848   -1.39489021635088    1.65639807840930
H           1.57080642494594   -0.90698302504506    1.29462899028210
O           2.65915788436083    1.20694948594810    0.11530691028287
H           2.65118899728624    0.46552662599789    0.85496654178221
H           2.64841884944663    0.69084697635149   -0.79787295156060
H           1.72572299377524    1.63923329384950    0.16628661344521
O          -0.07603905602477    0.58289279102661   -2.24875781464129
H           1.46058026265191    0.05930214763539   -2.16376752078523
H          -0.67413994003511   -0.10301318628058   -1.87979563066255
H          -0.14780757608667    1.33550778551007   -1.65129818687888
N          -3.78994772648093   -1.02996108267437    0.92136547535126
H          -3.50720775994373   -1.07761664419882   -0.05359548026479
H          -3.48480536900505   -0.12453382140267    1.26019246321039
H          -4.80022735412251   -1.07532564967764    0.97413460085114
