    26
        -50.44990181  Gyration_radius:  2.69038321046 Dipole_moment: 8.234
 S           0.61502984671766    2.83430088820556   -0.27888351798654
O           1.78727956517223    1.93063369982761    0.16738848910069
O           1.12072015794574    3.85734772288199   -1.11565441606380
O          -0.28692184545275    1.84868166240610   -1.09575448316911
O          -0.16977950710701    3.21783909827815    0.86412774264460
H          -1.01509381968532    2.09333519538054    1.64730488452879
H           0.34318331424268    1.25520609545013   -1.61948263249402
O          -1.41554856154329    1.32498414019876    2.12972382813100
H          -1.80731447525299    1.68763913554471    2.92559268995029
O           0.26397766041645   -1.44447234630587   -0.25435450319761
H           0.14932147502207   -2.40646553438702   -0.41875776476973
O           1.39784967766742    0.18287637653197   -2.02385901773956
H           2.19440223852811    0.52597676691074   -1.60740403512467
H           1.06500870880204   -0.54125922416651   -1.43854962512648
O           1.00141073885849    0.14744801242176    1.77044702440293
H           0.82063048061061   -0.57491412185195    1.13195972616836
H           1.50112953307987    1.24259349853924    0.88247109826666
H           0.12835508729696    0.46207781560162    2.07492889829945
O          -2.04309670646441   -0.11585569213931   -0.14377417097945
H          -0.64600443922037   -1.06048341862621   -0.25865522375008
H          -2.03828138991696    0.26731376755574    0.74821014717122
H          -1.78128746436980    0.61223528641437   -0.72198900652178
N          -0.22768744838345   -4.08232992868303   -0.77944742195132
H           0.17180300118408   -4.73369109412580   -0.11561813922466
H           0.10439880810029   -4.33212697500243   -1.70260542180220
H          -1.23348459623815   -4.19889080687930   -0.76736515875993
