    26
        -50.44962125  Gyration_radius:  2.52305288076 Dipole_moment: 3.570
 S          -0.93650295648599    0.64365708386340   -0.73879533095459
O          -0.11203092598405    1.27915890571887   -1.74835040072371
O          -0.67948146419091   -0.78288949737846   -0.62523086749343
O          -0.78661380768554    1.29340788701181    0.56973074070439
O          -2.43923442988751    0.78358861371604   -1.14873347792039
H          -2.55289723896671    1.76029144090417   -1.22487382205124
H           0.34408888805113    0.69454014071485    1.35342821857446
O           1.12602837111233    0.30673835297531    1.87709133594857
H           1.02865373826542    0.64498797897531    2.76934555928918
O           2.10533022991845   -2.36013823306255   -0.64058950506804
H           3.04359262677459   -2.56131981604994   -0.64772909097890
O          -1.43572900143295   -2.49796273896408    1.06362111194423
H          -1.64842208701882   -3.27766388181603    0.54608762961551
H          -1.31092949916169   -1.75871975134326    0.39379504326477
O           1.00091363940928   -2.22265078311842    1.61223088748083
H          -0.01621090565386   -2.41883323850544    1.45791401279087
H           1.45626822394934   -2.35565747827184    0.67662955087054
H           1.05163026241845   -1.20610383363165    1.76981788127327
O           2.14584766631564    0.23155640844753   -0.86267957744541
H           2.06639791695051    0.50901112102955    0.05668717488728
H           2.02948010106940   -1.38977225714266   -0.87702559688317
H           1.36797385288288    0.61742048515435   -1.32133253013433
N          -1.92725286998623    3.35945090442350   -1.12856750043783
H          -1.65067121938620    3.31644168309624   -0.15416577853036
H          -2.15619144784451    4.31803063376601   -1.36152678786200
H          -1.11403767343511    3.07342984947794   -1.66677887016606
