    26
        -50.44990114  Gyration_radius:  2.69067290379 Dipole_moment: 8.243
 S           0.87203356726548    2.74550531510803   -0.44533212016572
O           1.99774892621494    1.69962693487842   -0.27497957029904
O           1.29071040921697    3.71787362913817   -1.38431158298049
O          -0.30584619759959    1.89098177434386   -1.02380006689835
O           0.42381206400224    3.19659038767452    0.84504166311904
H          -0.34500088580080    2.16785975418616    1.81608939304117
H           0.11006017437268    1.23428917653445   -1.67164322761864
O           0.02013067717413   -1.46083459013955   -0.29645701805804
H          -0.24612636434949   -2.39911016174468   -0.41637318711133
O          -0.71151326631179    1.44430913523848    2.38670872304211
H          -0.85934413480724    1.83667495160581    3.24845975292243
O           0.90405795241584    0.04986682205479   -2.29671797537846
H           0.62938593668501   -0.63963926120540   -1.64334671002632
H           1.81081424581873    0.28638906468264   -2.07867610600660
O           1.39527056081977   -0.00612764060485    1.48430680014666
H           0.66157202894825    0.40487772550575    1.98102151794793
H           0.98504527421374   -0.68966722401546    0.91280781331334
H           1.80406906079342    1.03788514985420    0.49377128441528
O          -2.01801993152998    0.13623827639302    0.33170297070243
H          -0.81219863409647   -0.96906535298026   -0.09404675947673
H          -1.76172853912465    0.49787732045559    1.19534991070080
H          -1.80839441289461    0.83842286570526   -0.29767186393196
N          -0.89774873171027   -4.01166894504819   -0.65295061122523
H          -0.41444780883356   -4.72075317006621   -0.11584674022009
H          -0.85324294202615   -4.27359669976497   -1.62996925094456
H          -1.87109902889633   -4.01480522780489   -0.37313701901226
