    26
        -50.47229282  Gyration_radius:  2.48009064592 Dipole_moment: 1.992
 S           1.18170929098473    1.73113584062367    0.89415121448011
O           0.39484903093725    1.66411512694552   -0.33366303224461
O           0.41086440264410    1.31585835061395    2.04809001549738
O           2.45302016658057    1.04738516987958    0.75764477696595
O           1.53534158465219    3.25922024855408    1.12166598828677
H           2.28651517657314    3.36529738639859    0.54761116218038
H           2.12768411332710   -0.51382772910375    0.61886065278113
O           1.91345614286372   -1.46632192795117    0.44686262160981
H           2.57837893755907   -1.97348516869190    0.91524553054084
O          -1.26113233750531   -1.30719771414150   -2.04037615462765
H          -1.45167881697180   -1.70016200323491   -2.89228277541642
O          -2.16442403663896    1.02462891725759   -0.86810767247367
H          -1.28943875519133    1.45338183222870   -0.80046114882588
H          -2.01265906751304    0.23478644084351   -1.41783306807518
O           1.13785742939175   -0.29151358146460   -1.97726185495878
H           0.94321365898620    0.52009179214112   -1.46357227934735
H           1.62337680369406   -0.85753749439139   -1.36164785395636
H          -0.33763883546006   -0.92749865418910   -2.10331557441667
O          -0.71202397490059   -2.24640458463257    0.48832273881319
H          -1.39803866081335   -1.00637100573023    1.21824615316245
H          -0.97746757028471   -2.09529750656432   -0.43683070186993
H           0.24365101087351   -2.05057505425366    0.51865017968455
N          -1.75040882367912   -0.04177768442733    1.49292829194345
H          -2.11018971447466    0.42046285369704    0.60330899725517
H          -0.91152372970963    0.52553539036513    1.80243883346068
H          -2.45329342592182   -0.08392923076849    2.22132494953900
