    26
        -50.47229293  Gyration_radius:  2.48023827801 Dipole_moment: 1.994
 S           1.74154447625801   -0.43750416934328    1.40327577635699
O           1.56257961054916    0.63662335415561    0.43098628895173
O           0.63287839786410   -0.50865096412470    2.33291948457269
O           2.05414181038438   -1.69937007559692    0.76109707300311
O           3.01960943901572   -0.06211592106629    2.26185717493423
H           3.72102692576931   -0.36529590157109    1.69529408942809
H           0.74647078928182   -2.14890796035802   -0.04557478094608
O          -0.03569380296799   -2.37541405158244   -0.61097979542053
H          -0.13386335961730   -3.32716337927748   -0.55379234815945
O          -1.14996564693850    1.17042529980930   -2.18375332523043
H          -1.31369494430743    1.47126161709235   -3.07770858721078
O          -0.32085043188842    2.52636619934548    0.07467985426160
H           0.51093563851609    2.02883510001467    0.19553831892729
H          -0.65219184171012    2.24868911367341   -0.79835239500488
O           1.04908323932060   -0.21940791009984   -2.03501145475089
H           1.38028087460726    0.11663264099391   -1.17600121444129
H           0.75228183756438   -1.11990177105775   -1.84461623224924
H          -0.28644610010806    0.66556455045839   -2.20767924213219
O          -2.23001220262090   -0.73729742286104   -0.51943554042361
H          -1.94625822314002    0.10013451787333    0.80737379475463
H          -2.01539987758049   -0.08261579473386   -1.20839862738970
H          -1.50986283318542   -1.39500988493975   -0.55421594247221
N          -1.53090587271079    0.73034057177844    1.55581745984446
H          -0.68814998165978    0.23081871855441    1.95807869477958
H          -2.20181513491237    0.95860771032661    2.27982334576877
H          -1.15572277578170    1.59435582253557    1.05877813025290
