    26
        -50.47229288  Gyration_radius:  2.48013223467 Dipole_moment: 1.990
 S          -1.45116758948676    1.10309593944352   -1.36744745501404
O          -1.64849888316486   -0.09573356422343   -0.55813385891638
O          -0.94820313937393    2.20733428406434   -0.57620173979793
O          -0.67028322587283    0.82703315408072   -2.55759666032088
O          -2.88423234231353    1.54160632270062   -1.88301166515173
H          -2.99967862693703    0.96436780755285   -2.63041318772512
H           0.81242222929469    0.46920751591030   -2.07227985660932
O           0.85333647915127   -2.17033444268719    1.42110364374969
H           1.09398267520587   -3.06444513157053    1.66425431116656
O           1.70227329628087    0.16442403369888   -1.75905025463002
H           2.33730941500815    0.53097828592555   -2.37635469948798
O          -1.35397657976193   -0.63936989546647    2.06150604599549
H          -1.67883808791674   -0.53645099539695    1.14614380959047
H          -0.64445719855821   -1.30417622247514    2.00033632720543
O           2.21200515310913    0.17330695130505    0.93222107883409
H           2.12030298482325    0.20211823303908   -0.03904164590346
H           1.03304590156450    1.09935135071368    1.47411658100613
H           1.89770962463694   -0.71062420445107    1.19512114316166
O           0.10230175323971   -2.03224328338388   -1.07027934957370
H          -0.63800640372488   -1.39815927091306   -0.96836313730387
H           0.80004535425312   -1.52271054227036   -1.50459726352904
H           0.56214350343171   -2.20506730277237    0.46450859434841
N           0.09043439715205    1.52423918644894    1.72104836899991
H          -0.33811440845923    1.88812468631392    0.82367444460930
H           0.17148942485955    2.25985190885894    2.41294230923628
H          -0.53334569643724    0.72427518555773    2.04579410605717
