    26
        -50.44982206  Gyration_radius:  2.4680276014 Dipole_moment: 4.173
 S           1.15571949433333    1.27390167466380    1.22473406374883
O          -0.27727038046565    1.37629538598957    1.03701062617337
O           1.64405224978669    1.69240409749893    2.48865901118757
O           1.53878471379360   -0.23109642524788    0.97685563513428
O           1.88191611362657    1.95528022814523    0.08020314865351
H           1.43023634596089    1.61207689179316   -0.79549322463090
H           0.94643291776526   -0.81492084686117    1.52826609501025
O          -0.27864845428153   -1.45706553332340   -1.60895431314259
H          -0.44039920817717   -1.92832673144939   -2.42761063703756
O          -0.10887744724529   -1.83303783997980    2.18646478349602
H          -0.31452090721845   -1.58641428436880    3.08968195268943
O           0.66117640872490    1.11066793012572   -1.93656994974177
H           0.39568689998489    0.18111193470037   -1.80265799070981
H          -0.17871994400027    1.63635431327863   -1.86580324823818
O           1.36797382191251   -2.85080976274703   -0.04970338784569
H           0.34672929015536   -2.01332165354790   -1.08244261155769
H           2.03785887181461   -2.17886438073408    0.11507282174126
H           0.87305474799670   -2.93111681534979    0.77554194197085
O          -1.82076250233860   -0.75179896023905    0.57593135520788
H          -1.47908318018173   -1.01675915604624   -0.29399489387210
H          -0.88700251424378   -1.53535594520938    1.62414771344901
H          -1.41689694663487    0.12139236534893    0.74751852369758
N          -1.58750166557094    2.42948559139812   -1.31514939225995
H          -1.33275290301619    2.28030941078287   -0.34075975983666
H          -2.50733821393040    2.03253078691264   -1.45951660619706
H          -1.64984759853527    3.42707773447208   -1.47143163708747
