    26
        -50.44982216  Gyration_radius:  2.46794233231 Dipole_moment: 4.176
 S           1.70515883425505   -0.98541237500071   -0.76402599843108
O           1.60230768913533    0.44168081244460   -0.53629730282887
O           3.00156771941321   -1.54171848662492   -0.61925748013665
O           0.71274532222472   -1.67713937784716    0.24068658493219
O           1.07646115482522   -1.34796860200497   -2.09633311088702
H           0.15060326112449   -0.86818516982134   -2.12136446271165
H           0.88256682821076   -1.32895125439756    1.16040559971525
O           0.92068824733433   -0.65726270324756    2.61970903021493
H           1.82170079159716   -0.53458269275210    2.92310415220140
O          -2.13060374113568    0.15660708323138    0.47730279373762
H          -3.07445362938120    0.32046270193886    0.50481167280970
O          -1.08399212149163   -0.08171045482968   -2.05886489699339
H          -0.74869239632297    0.83964889544800   -2.21862862028361
H          -1.45037101639909   -0.06978825876988   -1.15445476949009
O           0.10761913778590    1.48301774270699    1.41485258893583
H          -0.77443383887058    1.21971194092546    1.10432811308576
H           0.59572103324662    0.24392367337687    2.31549247296731
H           0.70607486769027    1.27913001233767    0.66972816019398
O          -1.52229865821379   -1.98907754609288    1.93007266135131
H          -1.96984646654095   -0.65506938675514    1.01870349963353
H          -1.03504263145521   -2.49476730337344    1.27109298944510
H          -0.85666784220601   -1.65559891561812    2.54498968380751
N           0.13779887001394    2.29916267560617   -2.19877606305173
H           0.52042312660263    2.62238403112787   -3.07774019564761
H           0.89366466417674    1.87414247895764   -1.66530277505427
H          -0.18869917562489    3.10736046903509   -1.68423431751333
