    26
        -50.47229302  Gyration_radius:  2.48027096519 Dipole_moment: 1.995
 S           0.98965275505989   -1.26334086652351   -1.61821198167345
O           0.03644968360465   -0.16382888777692   -1.73439956322456
O           2.14906489279792   -0.88699687722192   -0.83567534248559
O           0.35017016534104   -2.48626388364529   -1.17331324576858
O           1.51812335234569   -1.56078355425766   -3.08241414492730
H           0.82091826492973   -2.10981868935233   -3.42508518175388
H          -0.11829503234788   -2.24619300017230    0.33815610444096
O          -0.48146776471690   -2.05954423962826    1.24160202275227
H          -0.36239657272418   -2.86698339279893    1.74419073664588
O          -1.91565566028810    1.70049269411281    0.94806465061989
H          -2.76176755683659    2.09980157683623    1.15088374592057
O           0.03429537932725    2.38897004988883   -0.88240945132264
H          -0.72783441959895    2.34719245827396   -0.27701339147742
H          -0.01468775682021    1.56369769675842   -1.40264348512721
O           0.03309698141596    0.38049575302410    2.37549865104777
H          -0.71489445044496    0.91136930521234    2.04691764526393
H          -0.13515432502993   -0.52712709213614    2.05853530315209
H           1.22259525576980    0.91284922452594    1.45718185459446
O          -2.20838483172253   -0.53676382129493   -0.35561801669155
H          -2.11244588351000    0.86373956473866    0.43605895459146
H          -1.46294614739010   -0.44179142080053   -0.98465390782752
H          -1.91563891516610   -1.21729234778148    0.26599157571952
N           1.82881534145706    1.23911306165289    0.64725390414214
H           2.05142985068308    0.38946672295062    0.05573996442465
H           2.67515035110258    1.69782545976505    0.96302305191029
H           1.22180707271996    1.87171449566625    0.04233952705160
