    26
        -50.47229304  Gyration_radius:  2.48049036926 Dipole_moment: 1.997
 S           0.25162130237264   -1.19349996392031    1.92538691125943
O           0.86827540935397    0.06234943474824    1.50872992058221
O          -1.19355733185390   -1.13297029052264    1.84606449902463
O           0.83235121684854   -2.33227707620206    1.24079524741021
O           0.60600722219147   -1.38504472707694    3.45811952358652
H           1.48080777251174   -1.75483565004006    3.40354796435149
H           0.42397400186972   -2.21459795963140   -0.30223757810637
O           0.24011631968527   -2.08762575076622   -1.26817127638055
H           0.06957313496687   -2.96273807014555   -1.62000523028595
O           0.76197321692029    1.87312262396870   -1.83555658212921
H           1.28315240950880    2.38553999531093   -2.45382632896416
O          -0.11501650143086    2.44076970697449    0.72077827797246
H           0.23251401980582    2.45515700436879   -0.18923400614778
H           0.36642638066396    1.71322967345851    1.16007552062334
O           2.14788098575806   -0.08530501533835   -0.81898105274828
H           1.74232630972395   -0.88267468765385   -1.18642423631245
H           1.36576062819579    1.15927436524538   -1.47908947107832
H           1.81407803083952   -0.04191215027349    0.10146645508785
O          -1.29334357317643    0.05161434819339   -2.02733501066270
H          -0.79479119031057   -0.76215222683233   -1.82304859011360
H          -1.95129832002341    0.48088998375823   -0.63991176227018
H          -0.61907272228030    0.74542824362914   -2.14225945048450
N          -2.12915017453245    0.79923863796128    0.35850524291929
H          -1.45799139142749    1.60374015401015    0.55039421346664
H          -1.83535824502927    0.00980300040147    1.00029074693133
H          -3.09725890115120    1.05547640637229    0.51192607247434
