    26
        -50.46011220  Gyration_radius:  2.39822678606 Dipole_moment: 9.010
 S           0.22265904848747   -0.04661887698324    1.94602144279148
O           0.98624923381448   -1.28108910593705    2.15468482632885
O          -0.06449639534497    0.73360345871752    3.10167102608435
O           1.18703731866336    0.86810715056355    1.03805212864859
O          -0.93720834599107   -0.32780092306179    1.09844108071885
H          -1.88738808936996    1.05145247203859    1.42813389949830
H           1.48463605053618    0.34012310236728    0.27511420640321
O          -0.40384571319368    0.66962221008785   -2.23573783167661
H          -0.60896113398329    1.09616241100144   -3.06883286877035
O          -2.12461299505534    1.98219053322623    1.60146993818894
H          -1.68191946325370    2.16909163768372    2.43554660091936
O           1.92120679512725   -0.25176466884737   -1.33691878443705
H           2.60974349580758    0.34181875093290   -1.64150358824809
H           1.08033793963139    0.05448727185952   -1.75627703251062
O          -0.47105421281713    2.52317592720632   -0.42208231855890
H          -0.52170200274861    1.37905113724201   -1.52992709714019
H          -1.24616952944703    2.49604523985828    0.18322133005407
H           0.25870950471171    2.22251568067212    0.14011680491181
O          -1.40674923867005   -1.65736422196490   -1.09595784499786
H          -1.18030640445388   -0.92892349848045   -1.69762122438449
H          -0.07925952792998   -2.26896750431202   -0.53037076179603
H          -1.55088696654840   -1.20349431036495   -0.24046691061972
N           0.87620636553956   -2.47541116940736   -0.08666851055237
H           0.89287463080529   -2.02590449562611    0.92064510600944
H           1.58408445894027   -1.98869402301482   -0.64334509224554
H           1.06081520674199   -3.47141418544237   -0.03740852463981
