    26
        -50.45018980  Gyration_radius:  2.49765851846 Dipole_moment: 5.278
 S           2.02143941172223   -1.20665751539020   -0.55697441243652
O           1.38499203216168   -0.82427134992801   -1.79762788044242
O           3.38546199797617   -1.57433755655735   -0.61338571728160
O           1.80065557221951   -0.02942343453401    0.44689299951251
O           1.21880377742171   -2.34052524064628    0.11112269759350
H           0.23539733239696   -2.13658300671254    0.10671053866852
H           1.63605028904500    0.79903301756508   -0.12243097945639
O          -1.31788411743544   -1.88434406991417    0.18284192631092
H          -1.72372592005373   -2.57543007226279    0.70852737454177
O          -1.41021225170559    1.71087258835598   -1.09600422280965
H          -2.00352601794710    2.29976263994691   -1.56366843093861
O           1.27925943094020    1.81212223124836   -1.20605774420902
H           1.40373774806112    1.16281594639225   -1.91292416201090
H           0.30800757287213    1.93538967000133   -1.12571220315165
O          -1.81173613120784    0.36820158360080    1.30151548566874
H          -1.72979631968055    0.99235400920773    0.56188296514944
H          -1.52444642040306   -1.00868549110945    0.65631030803713
H          -1.07444748396021    0.58289583115777    1.92463595948039
O          -1.24699286181213   -0.61364756689900   -2.27266649781024
H          -1.54928468117620   -1.23317422889786   -1.59390131838377
H          -1.41836358572500    0.84368603328488   -1.59574610148348
H          -0.27902058120660   -0.73594421250897   -2.29700435934114
N           0.35071657972007    0.88352691127209    2.83904562693950
H           0.45360945756810    0.39389018234352    3.71883390569587
H           0.56478825435516    1.85950919880283    3.00135665251593
H           1.04651691584896    0.51896389218123    2.19442756963615
