    26
        -50.44982212  Gyration_radius:  2.46802213373 Dipole_moment: 4.177
 S          -0.37890081051606    0.70373158575736    1.95488861599196
O          -1.31450086130516   -0.05268895544554    1.14764903031872
O          -0.48072087913740    0.51544405961913    3.35678369031626
O           1.06307905291358    0.30877261828592    1.46720566933332
O          -0.42769786475066    2.17114143119290    1.57292879636176
H          -0.38301037194082    2.20168521175775    0.53089671624726
H           1.14355277887093   -0.68581853170513    1.45542252604952
O           1.28549490852915   -2.26198311719607    1.17463545537198
H           0.91988158677969   -2.77872697640382    1.89452142431774
O           1.07315952546082   -0.01965027899665   -1.90870224466262
H           1.39201409292354    0.09727921114349   -2.80488407726169
O          -0.39056748137530    2.09804328377243   -0.92986464117665
H          -1.31887630441816    1.79336479807498   -1.10960553257242
H           0.18369710944634    1.37079599935104   -1.23597961331072
O           3.09733827746940   -0.57645546927765   -0.27212903355562
H           2.82199910155898   -1.40312709904190    0.14410111850513
H           1.86676722083414   -0.20790446568927   -1.34976266734280
H           2.95718302574236    0.10638087086320    0.39229877795334
O          -0.52673739503565   -1.87938472169302   -0.63169914033640
H          -0.06640192191213   -1.30435156054497   -1.26506696966364
H           0.60768290113511   -2.28492749158349    0.43275440982469
H          -0.98741310597375   -1.26611768531234   -0.02613710168983
N          -2.82640320865164    0.99200155309165   -1.08397123359018
H          -2.60241347239091    0.52390057160190   -0.20800731546476
H          -3.05715663416006    0.28044182966245   -1.76589775796103
H          -3.65104929007006    1.55815335873271   -0.93237891201026
