    26
        -50.45601904  Gyration_radius:  2.44961148268 Dipole_moment: 7.015
 S          -1.73963683343619    1.00009736462479    0.21992890375357
O          -1.95543967957465   -0.43488892309044    0.19646506057939
O          -1.96596970185408    1.58538007520074    1.52417933033250
O          -0.37290161767964    1.34345772506341   -0.24705464676356
O          -2.70880718575595    1.66134811549172   -0.80951704904827
H          -2.49625053281857    1.19574033896805   -1.64019548058892
H           0.37839498049720    1.73749419277684    0.99938084960526
O           1.91803802337563   -0.56935119498952    1.71974485438521
H           2.76535114500866   -0.92150603393950    1.99551749689895
O           0.68374294298643   -1.73363740346172   -2.13898246395743
H           0.72918252646029   -2.53670699304406   -2.65892008853052
O          -1.77306782681496   -0.26461547707485   -2.44924382911316
H          -1.97507014939334   -0.64743212803322   -1.58016195862251
H          -0.85590371045388   -0.52799879336141   -2.61495303701474
O          -0.01482217113636   -2.24124292184854    0.37299254183687
H           0.39432041226371   -2.00657994230525   -1.23121163997639
H           0.60210388642808   -1.82686685251237    0.99012459972005
H          -0.80989788832878   -1.67116638100967    0.38073206918653
O           2.00558404074289    0.21174287727601   -0.75923122506116
H           1.80988860400476   -0.51184991611400   -1.37748592958568
H           1.17288539640852    0.71920422637981   -0.74047968009931
H           2.02278111538099   -0.30258785809762    0.75512013374842
N           0.54920876924451    1.71483695249456    2.06956877162105
H          -0.45916791562763    1.65083307947835    2.34429056758930
H           1.01199420535882    2.53956957075236    2.43542764601501
H           1.08345915474109    0.83672629040481    2.24396420308525
