    26
        -50.45601901  Gyration_radius:  2.44981675078 Dipole_moment: 7.022
 S          -1.13638003456956   -1.64158944323040   -0.30625449667543
O           0.04754610925116   -1.65021958255855   -1.14566370813088
O          -1.09497455099265   -2.63925673012151    0.74124158900700
O          -1.35653275215960   -0.30149957662089    0.29374268983061
O          -2.38282529328541   -1.90244618182375   -1.20876994544389
H          -2.31469964894708   -1.20163315805034   -1.88417287534199
H          -0.96369491801804   -0.45413818870480    1.74009784045201
O           1.68699732270132    0.62147768982878    1.92945686203352
H           2.29200505565282    1.18644954510479    2.41178962391014
O           0.66651845066495    1.97083299802967   -1.93041562281879
H           1.13234446513659    2.39434344541128   -2.65219054574819
O          -1.26760586100278    0.00430230475167   -2.75644777737661
H          -0.58367234781841   -0.62015459634452   -2.46498660296590
H          -0.92016229516336    0.87100105008399   -2.49927046689951
O           2.10392505510328    0.00880309054143   -0.86350578999796
H           1.25566337083163    1.24116760207600   -1.60969280952364
H           2.16217246893135    0.10957521722615    0.09542505776783
H           1.44461613604477   -0.69922690756846   -1.00913516512271
O          -0.10247148264107    2.03838765767260    0.68417089484764
H           0.19781860332072    2.31151719827871   -0.19873742089744
H          -0.71086688986574    1.30024619852490    0.49358506325767
H           1.03778882870303    1.23382349357662    1.46407868040508
N          -0.41664566017718   -0.92913466292850    2.54688779619603
H          -0.86119683264102   -0.85090594131635    3.45487864624865
H           0.53502890294506   -0.50345512345599    2.52108043789400
H          -0.45069620201827   -1.89826739848602    2.15280802507336
