    26
        -50.45601897  Gyration_radius:  2.44942640227 Dipole_moment: 7.014
 S          -0.37599293924093    1.86957007793443    0.66237507742192
O          -0.98942200835429    1.63862224904828   -0.63248128173052
O          -1.34098919435510    1.97210102417879    1.73618420389512
O           0.61184671017760    0.80891428098759    0.98359478073848
O           0.44603691132291    3.19444249670283    0.58938691910564
H           1.04899850924076    3.03644962849706   -0.16128089583488
H          -0.05368533120667   -0.03910223262647    2.03725554636199
O          -1.06303156731875   -2.32763542803082    0.64088219801927
H          -1.15728207941845   -3.28064343127694    0.61103579247036
O           1.38629542399094   -0.69470577512351   -2.37550100369378
H           1.53330955289821   -0.86626605150027   -3.30624633313171
O           1.41105009942644    2.09752976337792   -1.67733527584780
H           0.44793999296402    1.97976342696484   -1.64357027963745
H           1.75282272616649    1.20271583016621   -1.82100324567535
O           1.40067382281028   -1.62901377661560    0.18634292028643
H          -0.09555101779515   -2.13262965665611    0.44444547917806
H           1.58403529827910   -1.53387060356388   -0.76309517902357
H           1.30646514324911   -0.70632420932060    0.48784951826047
O          -1.20031626461704   -0.75089130469824   -1.77503451761115
H          -1.36387935963181   -1.33100735399561   -1.02014451342991
H          -1.24827525814502    0.15842723396540   -1.41714501223803
H           0.40419765475187   -0.70843599146121   -2.24250056758294
N          -0.92405673741007   -0.43855403163427    2.54528250616556
H          -0.76122737789403   -0.69595839556319    3.51244930578175
H          -1.24065361791069   -1.23986542080254    1.95842275633356
H          -1.51930910196276    0.41636764107220    2.43983108147529
