    26
        -50.45720829  Gyration_radius:  2.51183223606 Dipole_moment: 6.175
 S          -1.41828577482997    1.07701065357513    1.37685046730214
O          -0.24834759250469    1.77117575476213    0.79630290971796
O          -2.55252336838547    1.92899902102068    1.50894350239032
O          -1.70516858707435   -0.11223397256847    0.53387859144939
O          -0.99369665341296    0.54634205082603    2.77788653961861
H          -0.21750365664536   -0.05855786184981    2.67598719870407
H          -1.76172284208620    0.64906137733034   -0.84364018952480
O           0.98210834425816   -1.19978607768991    2.52058974073485
H           0.92301586653796   -1.78271162114670    3.27901025028816
O           1.66255319267610   -1.00544066737265   -1.40473437154395
H           2.52500773649705   -1.32781913002932   -1.67035141943719
O           0.12249236464945    0.13102788933519   -3.25388352596452
H           0.75346368910887   -0.26209480525808   -2.60460864227211
H          -0.29414705483143   -0.60757414870151   -3.70138424967573
O           2.06288847610402    0.54515788612512    0.62583910796294
H           2.02960196723932   -0.01488478693543    1.41223969677973
H           1.83483015808333   -0.36000095455864   -0.65051299067622
H           1.25901115290381    1.11105455931555    0.69269365153585
O          -0.10769081009338   -2.21377466836665    0.39891582834449
H           0.60411856804338   -1.70481160179158    1.73917921556049
H          -0.81609284634870   -1.53309065359527    0.42283597312633
H           0.47419400293039   -1.95422205573713   -0.33292575605944
N          -1.39117151327431    1.42460580938294   -1.47783500655921
H          -2.12835672858390    2.04657006266562   -1.79207918372459
H          -0.82746847343028    1.01624445830966   -2.26913410081728
H          -0.77110959745868    1.88975348397025   -0.76006321726670
