    26
        -50.45720845  Gyration_radius:  2.51165192023 Dipole_moment: 6.169
 S           1.91813316356749    0.19916151004785    1.15984657129673
O           1.78677141190155    0.77102181895201   -0.19778652117946
O           2.72854175124517    0.99883725121879    2.01628394384395
O           0.54979835591321    0.00319394918579    1.70452213539118
O           2.55090684940029   -1.21548017574501    1.00784051129424
H           1.97539295003263   -1.76923916288052    0.42382552091059
H           0.03797660073244    1.46857893753118    1.44235045055339
O           0.95071036453728   -2.77140479265394   -0.41908667807926
H           1.13828856360455   -3.66971955780550   -0.14270912587154
O          -1.92555097998281   -0.19252322846166   -1.41587349587677
H          -2.45052753271797   -0.46042445995213   -2.17143709713884
O          -2.34496301211811    2.22772448164464   -0.39210919351689
H          -2.20578108006350    1.35897693818316   -0.83952639707686
H          -3.10428399028381    2.11312863057616    0.18203729751719
O           0.54537902181060   -0.56377264358154   -2.08204909869094
H          -0.96517046669102   -0.28779303552521   -1.70534649699585
H           1.07454103341474   -0.00682142776980   -1.46503054674208
H           0.76496558033786   -1.47169125115887   -1.83575862215090
O          -1.14312008652145   -1.78804071867132    0.74954511923665
H          -1.59367274598328   -1.26741142041661    0.06579036657105
H           0.08984072584641   -2.50731329604587    0.02553783560806
H          -0.58371470088862   -1.14585923517764    1.23994530035919
N           0.02709523443806    2.33942964211997    0.82365412411640
H           0.30157714218243    3.17319941888709    1.33214560174834
H          -0.90452522688490    2.43612927200814    0.34028853549576
H           0.78139105317722    2.02811254544583    0.15309994934882
