    26
        -50.44707821  Gyration_radius:  2.51026296086 Dipole_moment: 4.738
 S          -1.32717689831716   -0.30106874803056   -2.02288546118102
O          -1.18324404356887   -1.47871747666020   -1.20329898805469
O          -2.32745523764962   -0.31594831304306   -3.02114767043803
O          -1.52154371710947    0.90872680231185   -1.04987447631866
O           0.03674734803852    0.03071281963236   -2.68181865925638
H           0.69028110190721    0.26468853814029   -1.96998498526704
H          -1.57608175164704    0.50801130712872   -0.11426242814399
O           1.68472384089941    0.85349207570701   -0.83785525956082
H           2.50889935838087    1.13931199776878   -1.23598323716726
O          -1.54771064187858   -0.28796098205166    1.18570930570813
H          -1.79622980925158   -1.11725565078188    0.76113120128690
O          -0.11639573814870    1.95118584504533    2.39081188982690
H          -0.99627028453245    1.56331620658239    2.41370626908617
H           0.49978423187540    1.20823906094753    2.43022253936643
O           1.05845764062085   -0.51372685776586    1.48660869268653
H          -0.57141326916410   -0.38319777204070    1.37325955727690
H           1.09139261816365   -1.46744945291156    1.22237610239925
H           1.41989226839212   -0.04335019379928    0.71799909323128
O           0.26216740936766    2.87248205297045   -0.11546274741521
H          -0.57007858666113    2.62456766646908   -0.53630357778553
H           0.13751720270445    2.71732335527930    0.84719456199202
H           1.19026485306867    1.69553863190209   -0.57197780663688
N           0.82111863214429   -2.91221649892341    0.31431369361136
H           0.42774183106934   -3.71348260913437    0.79235981162939
H           1.59423951418299   -3.24506034460432   -0.24847500012231
H           0.11037210711679   -2.55816144013560   -0.32636243075759
