    26
        -50.44707817  Gyration_radius:  2.51012192155 Dipole_moment: 4.739
 S          -1.33582266093218   -0.47268279948281    1.98367776360778
O          -0.10805842942186    0.24348209263763    2.22661802015281
O          -2.29566070434760   -0.49756886685250    3.02072105346603
O          -1.94688581273006    0.10716753982274    0.66530367550017
O          -1.00271311146309   -1.92979117408797    1.57111085966147
H          -0.51025053544712   -1.91543106541830    0.70758613166030
H          -1.34660102544814    0.88676198280536    0.39893625836681
O           0.09182423339945   -1.90464213890772   -0.79422729994650
H           0.23467965955821   -2.80180705399126   -1.10100091876202
O          -0.28053810092874    1.94671097080803    0.14615731399750
H           0.00037351719160    1.98012708756969    1.06790932572804
O          -0.56155023860476    1.38267693398521   -2.70360201578645
H           0.34865846887185    1.14200090803372   -2.48721809514137
H          -0.80554846782970    2.07264857524560   -2.07946769232965
O           1.55132973899762    0.43915979371074   -0.99636696165839
H           1.14764315353191   -0.44377694368345   -1.00819696529548
H           0.44124134622599    1.43711351935229   -0.31937293247763
H           2.14920144318468    0.41946843757747   -0.20724667460206
O          -1.92161257985853   -0.83280658191729   -1.98558510369697
H          -1.52750994725408   -0.03572619029415   -2.40471720664219
H          -0.70179156560954   -1.54981992708196   -1.31229133667718
H          -2.40111973889864   -0.51754617668461   -1.20977116200865
N           2.67405587171443    0.24467192093856    1.42931917656385
H           3.18489763534528    1.00920370261862    1.85345913061408
H           3.16306535097227   -0.61133269850918    1.66042513713446
H           1.75869248979045    0.20173816179538    1.87784050857822
