    26
        -50.45335474  Gyration_radius:  2.50765879877 Dipole_moment: 8.514
 S          -2.03099821065752   -1.39277477886955   -0.12763483310561
O          -2.24730047752961    0.00323145243530   -0.58586695389489
O          -2.96132544858914   -2.31753593512840   -0.67225017565451
O          -0.61352612437803   -1.74239145692194   -0.39195298354426
O          -2.18830346870762   -1.37173535221853    1.42649254559609
H          -1.45122808140116   -0.84330322627910    1.80928095367281
H          -0.12059241252876   -0.85404823328901   -1.57246081205344
O          -0.14174209946736   -0.06714852831776    2.53026324612878
H          -0.14342965401194   -0.31490954553832    3.45591352219893
O           1.03503583018881    2.07598017636240   -1.05353337156303
H           1.07867710970245    2.99561003650010   -1.31745764228744
O           2.91179011039805    0.16983799168156   -0.41129420070912
H           3.69688495497213    0.55222006308102   -0.01733677413886
H           2.30836212085403    0.90504668583107   -0.61346985331661
O          -0.84378922267983    1.84216097541627    0.68752924601968
H           0.33331098713191    2.02839577829143   -0.32707323667699
H          -1.49010941335117    1.23972444838971    0.25248312100689
H          -0.55356985269903    1.36418983692193    1.47885418031484
O           1.49884289761328   -1.55143611845982    1.21216354957740
H           2.09127838458065   -1.02860506240609    0.64218511848526
H           0.57559767522331   -0.61943989041567    2.08754327544131
H           0.77720052872440   -1.84594240037836    0.62164370538605
N          -0.29862406538158    0.00065962989634   -2.19322756600295
H           0.35215081326762    0.77611727841873   -1.95984407952795
H          -1.26113431898392    0.21714598733960   -1.77923784596603
H          -0.31345853232530   -0.22104981254473   -3.18171213535655
