    26
        -50.45335470  Gyration_radius:  2.50770328657 Dipole_moment: 8.514
 S           1.59817109761403    0.19351688632233    1.86844409443980
O           2.16264914402600   -0.50056683146464    0.68304534889239
O           2.58524384488791    0.78470625246237    2.70121855087956
O           0.56923087358718    1.14826946667350    1.38762182368848
O           0.83027775174941   -0.89347938039460    2.68661953769424
H           0.05850609113392   -1.19765959645872    2.15656114585992
H           0.92939820515648    1.53139585243522   -0.07764522214758
O          -1.35110602285491   -1.65861438425534    1.35865260748259
H          -1.90612361078440   -2.10053564044948    2.00278084260044
O          -0.04727355030084   -0.25904340188975   -2.53356671614639
H           0.15102232554623   -0.66791652202590   -3.37664103582273
O          -2.11173127786498    1.29708897316653   -1.59343130573862
H          -1.43929804987280    0.71453068166983   -1.98601076693476
H          -2.94245912265577    1.09810438147203   -2.02723238269934
O           0.45311298036321   -1.97610947091805   -0.68523279060856
H           1.17490745437482   -1.55389887342409   -0.16488907403305
H          -0.28195958707526   -2.06695770306566   -0.06050173761025
H           0.09938153147041   -0.97588685994909   -1.83553597429818
O          -2.05435808747103    0.80692292903087    1.11778521628776
H          -2.15928298625879    1.06974171156115    0.18544819621113
H          -1.72699740366320   -0.73028144351853    1.24609106115483
H          -1.15418829998461    1.10048032395052    1.36212473654489
N           1.50808828526856    1.31056408587897   -0.95189619580552
H           2.07042456735886    2.09283937743909   -1.26539076953001
H           0.91413002196453    0.90918536562924   -1.70381836218375
H           2.07023382429915    0.52360381009800   -0.49460083818149
