    26
        -50.45335474  Gyration_radius:  2.50774821349 Dipole_moment: 8.512
 S           0.31446727965231   -1.52088641283814    1.91600462939580
O           0.86385964376455   -0.16105300406390    2.14976926913473
O          -0.00670746503795   -2.21464786536676    3.11302350912609
O          -0.82373087499077   -1.39425728923238    0.97277080938425
O           1.42245727427071   -2.31425640907621    1.15212303740458
H           1.53835718732608   -1.91152093036461    0.26134961024753
H          -1.40068451374258    0.04506410538114    1.11952926373867
O           1.68652009745288   -1.35346112263319   -1.32055923090505
H           2.15984085864938   -2.02631673471890   -1.81195922338141
O          -0.17491190447610    2.48439616679885   -0.53584383096585
H           0.10852603858919    3.39905971793870   -0.55506807626398
O          -1.78832838583351    0.94214515551347   -2.14316306462939
H          -1.20305296820746    1.53861070365616   -1.64581843339041
H          -1.76455412307864    1.22534900210624   -3.05810010932857
O           1.87433499610943    1.03331373585611    0.02220852552496
H           0.66074382699367    1.93788293888722   -0.37648937470920
H           1.63511139563450    0.61317280998735    0.88017479119870
H           1.97861627985687    0.29366910288487   -0.59496895207572
O          -0.85113921112787   -1.60719125398225   -1.67815985158136
H          -0.98929035285717   -1.70613036347888   -0.71522106300027
H          -1.27632176043787   -0.76082525441629   -1.90667863731053
H           0.71411202278613   -1.45001431447843   -1.56703770719271
N          -1.25976141108601    1.03889856724183    1.49370639206805
H          -1.06424686831657    1.70667817179065    0.72233883937501
H          -0.34518409859787    0.81722578567695    2.00298623907342
H          -2.00903296324997    1.34509499092633    2.10308264907317
