    26
        -50.45335473  Gyration_radius:  2.5076896068 Dipole_moment: 8.513
 S           0.21917656440837   -0.66634274243175    2.36401881974746
O           1.32759024097789    0.20362935354398    1.89469468458133
O           0.01883709532774   -0.61872034548128    3.76933815494140
O          -0.98992163404044   -0.32621758842495    1.57429750527006
O           0.60548705069892   -2.12418139312908    1.95656385571689
H           0.60183062790907   -2.18655154578881    0.97413231491773
H          -0.83997539414107    1.14766099257107    1.09322545273844
O           0.48022243040507   -2.39114576015082   -0.69318884613428
H           0.45570465908615   -3.33460690794341   -0.85906930479575
O           0.72135100656103    1.84454073209961   -1.60214009082857
H           1.33948540040643    2.41042560964390   -2.06579033939431
O          -1.79298325241113    0.88115413880358   -2.16532963681899
H          -0.89174187362989    1.22911089564124   -2.05464470025327
H          -1.93493422251867    0.76527388868581   -3.10570294417257
O           2.04165887466204   -0.13475272577326   -0.62493254501743
H           1.63564814487867   -0.98830912271189   -0.83815396250413
H           1.25770622683988    1.04831666414743   -1.28460503109588
H           1.92299763366977   -0.03563527105199    0.34770074730298
O          -1.90783949315378   -1.42769821502360   -0.66533784922951
H          -1.98940516330207   -0.63026591048126   -1.21920815751987
H          -0.46791451277564   -2.06069339749062   -0.77959342406557
H          -1.77443010207625   -1.09043113739588    0.24276408482101
N          -0.19157446516581    1.98881719107066    0.95337974526061
H          -0.52087533363082    2.82711319509155    1.41733831936731
H           0.01927183771347    2.13675406640983   -0.05306068066676
H           0.65462765332529    1.53275530560205    1.42330381779729
