    26
        -50.45335469  Gyration_radius:  2.50784079886 Dipole_moment: 8.513
 S           1.11832657388251   -1.73170228171503    1.35455538771415
O           2.06963070460684   -0.83668660917730    0.64767380922062
O           1.67171270098651   -2.34766123112839    2.50855351853451
O          -0.11867688933667   -0.95774700999736    1.62298093971734
O           0.71977591480138   -2.84186663529194    0.33005704634859
H           0.20584167792635   -2.42612635114244   -0.39931640840624
H           0.27095916948978    0.54882315283694    1.68519328389718
O          -0.79092991291085   -1.79689388521743   -1.60233170312502
H          -1.21987146976777   -2.54022454141086   -2.02860468394480
O           0.41742525041514    2.31860227987667   -0.96708532483404
H           0.87561893449753    2.98433545051652   -1.48102057788280
O          -2.19764556737445    1.95434690062486   -0.19530317382024
H          -1.30438815849275    2.13075353013182   -0.53677648809468
H          -2.81701832145182    2.31164142075938   -0.83297254131108
O           1.26987760163291    0.01219887725937   -1.72151723848091
H           0.72700962532421    1.42646836629269   -1.32876191067448
H           1.69253250700092   -0.35617967842790   -0.91182765641852
H           0.54492513828583   -0.59854353097138   -1.92235601342781
O          -2.34399051583261   -0.77207949237135    0.17811265102528
H          -1.47379803139338   -1.38885226328847   -0.98355595467230
H          -1.67022828496685   -0.92315458243055    0.87041408716204
H          -2.40755571224868    0.19676725994759    0.09694350846571
N           1.00844041120585    1.29863285800523    1.48129630866105
H           0.72815949138195    1.89141597257128    0.67548255529317
H           1.75831855283947    0.60621305983857    1.16037713302380
H           1.26554860914180    1.83751894365987    2.29978943584943
