    26
        -50.45282447  Gyration_radius:  2.42231482988 Dipole_moment: 8.171
 S           0.94224702327422   -1.45264933083045    1.00842529255404
O           2.05159644530317   -0.56633570831737    0.73982720631585
O           1.20220970703264   -2.66365179638757    1.70570572354830
O          -0.18447405212314   -0.68330778044379    1.63229153935232
O           0.34014235441485   -1.87922516507898   -0.40836652201935
H           0.38187284258475   -1.10425189447019   -1.01493227853146
H          -0.59778659867132    0.85714327127260    1.36880538493745
O          -0.95745537973813    1.74888519094768    1.12630084694586
H          -1.27742076086695    2.14073483076005    1.93994487056416
O           0.28403230092695    0.11029211700181   -2.14586742656073
H           0.40060793978224   -0.23006807764848   -3.03441101506580
O           1.81785845793093    2.19550401245718    0.84910267759732
H           1.98335071365394    1.26462778353105    1.07497370855443
H           0.85583312643151    2.29386792600928    0.85778930021897
O           2.58265522788882    0.99001754763300   -1.42697715095986
H           2.74300462508815    0.26260738472881   -0.80160223947289
H           1.16418258614937    0.55457115167030   -1.90881840346356
H           2.43624718561207    1.74940567430271   -0.82813351711747
O          -2.16618583591229    0.58894800646872   -1.00066305292564
H          -1.37664216582699    0.49032494540206   -1.56188859286965
H          -2.32550962762866   -0.75733939514387   -0.22882857086844
H          -1.87785257900044    1.20114861694953   -0.29516039337404
N          -2.19166328801808   -1.60231227780867    0.42679477069889
H          -3.03427054634195   -1.83638907260954    0.94086653375018
H          -1.36107554556154   -1.27435334161183    1.08316461119501
H          -1.83550416652485   -2.39819462880391   -0.09834328304083
