    26
        -50.45335473  Gyration_radius:  2.50765977794 Dipole_moment: 8.514
 S          -0.28977009417053   -2.14447464765573    1.18290936960829
O           0.73558445900046   -2.20031145526243    0.10997104291105
O          -0.10638765897469   -3.12672370241621    2.19230718396215
O          -0.33022807379287   -0.75422642441999    1.69958362990936
O          -1.66628293546014   -2.38622205474666    0.48472937816719
H          -1.85386237667857   -1.62456127819761   -0.10999074451243
H           1.06474226509629   -0.11315182547323    1.43867852334110
O          -2.29367351437276   -0.28954972760351   -1.03801409014601
H          -3.23244859859346   -0.36707233014973   -1.21392540106695
O           1.73450139764871    1.28652327904991   -1.35100206775715
H           2.35809409132955    1.43375606684131   -2.06285330151545
O           0.17458514852855    2.93337276807654    0.20498810551703
H           0.72432089633256    2.41509263862881   -0.40719392126277
H          -0.09078662006398    3.72739630877429   -0.26078641324155
O          -1.88808143055065    1.27316772980276    0.96826419463300
H          -2.19553690638322    0.39542495737361   -0.30531397586123
H          -1.41499567095537    0.56117593889578    1.44307222752960
H          -1.20708606093653    1.94398320511252    0.77964664278362
O           0.24076107664556   -0.70183450328435   -2.00751125555402
H          -0.70155911254325   -0.50352300760628   -1.89984474576850
H           1.12500374176350    0.54322532298095   -1.66481767180562
H           0.43615914838508   -1.37715661255830   -1.31789792937514
N           2.00318503000250   -0.17317856993191    0.92542295599758
H           2.80065974429215   -0.15333169431437    1.54996633512613
H           2.06237186275169    0.53458346363621    0.16724313295283
H           1.81073019143628   -1.13238383557319    0.49236879526774
