    26
        -50.44867323  Gyration_radius:  2.53128618041 Dipole_moment: 6.583
 S          -0.42392905627828    1.59453586340298    2.00165830512658
O          -0.80901170431618    0.21062510563674    1.82667534689018
O          -0.44685378006083    2.11204980656455    3.31599913260852
O           0.99095876059813    1.75056908304866    1.35084836543964
O          -1.28453867756173    2.48128574378021    1.08154259315236
H          -1.36979728220010    2.06339143617325    0.17007218203940
H           1.44790199928627    0.85304022113692    1.51217623633553
O           2.06834802208238   -1.04225103275473   -1.01995399342409
H           2.98443005465171   -1.07955893670800   -1.29936184845887
O          -1.54456028894865    1.37154758580229   -1.23461251503257
H          -2.30211987932136    1.75312652980300   -1.68162773133917
O           1.73074642332134   -0.64649090696249    1.62590671569005
H           1.88001007593858   -0.92566484493880    0.69469216317840
H           0.80030288076476   -0.82866183211706    1.82635137676513
O           1.20257571592867    1.41917802325049   -1.42551468605526
H           0.24667916762044    1.41579510511815   -1.59032722774848
H           1.30898513395973    1.80934439551443   -0.54669461707608
H           1.74461299756532   -0.13596023657260   -1.26193761601843
O          -2.19378393012527   -0.86488268251479   -0.22407124930388
H          -1.85831074749599   -0.62067736031257    0.65578802943986
H          -1.83376267975243    0.44230014768123   -0.91765127480952
H          -1.58919570498115   -1.58263337298739   -0.54442206224790
N          -0.38910550600516   -2.71724531169274   -1.00742409444502
H          -0.58540551703059   -3.15828121020288   -1.89684776843199
H          -0.27110705989376   -3.44962855153342   -0.31872299072868
H           0.49593059225881   -2.22485276760853   -1.09254077147012
