    26
        -50.44364327  Gyration_radius:  2.49275595825 Dipole_moment: 5.417
 S          -0.17989864488105    0.80186555282566    2.18198616633247
O          -1.02765903295617    1.67573368201055    1.42049955431044
O          -0.20984306761563    0.88445677430357    3.59451383647167
O          -0.48638414234248   -0.67008607980566    1.72367214667375
O           1.28035494714756    0.95918309520210    1.68712845797389
H           1.27654828661533    1.34927236325400    0.75783135289328
H          -1.43022280892168   -0.70825816773209    1.38636497405763
O          -1.51661219695995   -1.10133751338396   -1.70412304423611
H          -1.64144189584527   -1.52648022323378   -2.55301647787763
O           1.29703048072032    2.01841596864756   -0.66688830442032
H           1.35934126080091    2.96502922738783   -0.52458189752092
O          -2.80494215934354   -0.97153778085024    0.64890493914808
H          -3.13988066365513   -1.84600950339038    0.85829787479928
H          -2.50130730868738   -0.99663165971479   -0.28309753885345
O          -1.18258034827911    1.61081525281082   -1.26073991455497
H           0.36407382297062    1.86105176155805   -1.00860867342984
H          -1.36235018187640    0.68604481739176   -1.49893130626945
H          -1.40665210921803    1.69979081890392   -0.31604637057262
O           0.53333673913724   -2.10520802743638   -0.46743013262959
H           0.30813836442226   -1.85473322816176    0.43834778223526
H          -0.69529935163148   -1.50744264871337   -1.29602150119636
H           1.38069273183940   -1.62794430670902   -0.65339474769596
N           2.75546258819890   -0.59392962224088   -0.65324042811348
H           2.96980126391398   -0.46010088517097    0.32844408988593
H           2.44873494164511    0.30508842925389   -1.00971701043046
H           3.61155847470646   -0.84704810713256   -1.13015381709877
