    26
        -50.46919479  Gyration_radius:  2.46723671628 Dipole_moment: 3.372
 S          -1.02385845903522   -1.05977130542205    1.89354754579984
O          -1.30083681879535   -1.36301439185782    0.49508278124073
O          -2.06012628082169   -1.40819349491650    2.80839687170799
O           0.24812188239527   -1.95276250138159    2.29560784972566
O          -0.52631782542403    0.31877755965451    2.01271587447721
H           1.01614320044746    0.18018671598048    1.49253352118324
H          -0.18347526153346   -2.63854273137591    2.79202056173271
O           0.54403679404870   -0.07708996061657   -2.63815482940184
H           0.83245236710439   -0.42322847351821   -3.48273429529235
O           1.91689941175657    0.10703367418219    1.09574876904731
H           2.48767116134526   -0.19924511110380    1.80165149660474
O          -1.98981346732459    0.19198693405611   -1.58552331281697
H          -1.92437462119779   -0.50232883456182   -0.90062552200450
H          -1.20598965965906    0.06594269947020   -2.15160048481195
O           1.01514994683221   -1.75534584103744   -0.71513502939757
H           1.56034354956177   -1.23700326365089   -0.09924733871023
H           0.13335275011361   -1.77806924239255   -0.28832879303859
H           0.75314326495965   -0.78224306209536   -1.95591725119009
O           1.45642317277982    1.89890636019425   -0.97223034536768
H           1.85242151465673    1.35073352520624   -0.27531950334400
H           1.24881089009738    1.28577201504344   -1.70241096956625
H          -0.00786492716185    2.13502458981640   -0.37404998863545
N          -0.98473403807244    1.98931237489959    0.02171579434052
H          -1.45397671060243    2.86457175509819    0.22183374235129
H          -0.88025477348222    1.40326523481314    0.89021974682123
H          -1.52334707300665    1.38532478557217   -0.67979691144932
