    26
        -50.46862845  Gyration_radius:  2.47474569901 Dipole_moment: 4.030
 S           0.76767764549123    1.19748921810520   -1.73820612303519
O           0.67782659024597   -0.27263859373813   -1.72439261431068
O          -0.42447908509459    1.79371565380053   -1.20030349874200
O           2.00858442311503    1.66057717032191   -1.15255294597280
O           0.84693953354722    1.59891576250373   -3.27280648532875
H           1.78467819705563    1.55231048002668   -3.42629481139238
H           1.73942378563643    1.46030098632183    0.42163034818394
O          -0.40179732799616   -2.31150707238997    1.39419850696696
H          -0.26743546335554   -3.17109514529423    1.79338173919899
O           1.59622840163116    1.23539251345822    1.37365491028111
H           1.97928739218853    1.95597668339487    1.87701168681117
O          -2.52843801239229    1.00746869499393    0.23218822212929
H          -1.91577744239155    1.55332031289945   -0.29555610098444
H          -2.11331602138217   -0.30170279908931   -0.38256994802576
O           1.82014977678652   -1.35385551039139    0.44981853313434
H           1.54172562533825   -1.03026259928009   -0.42997809482108
H           1.97954440212815   -0.54714166473141    0.96313098099701
H           0.49661865336131   -2.00453245181007    1.06984501776216
O          -0.89411993823191    0.37179010423870    2.23854516458078
H          -0.04165580421633    0.74979562921579    1.96217279878521
H          -2.08051547347064    0.91212179139755    1.10513912448625
H          -0.79503829894449   -0.58629790625331    2.15673951170980
N          -1.59498083938360   -1.18011160416900   -0.77318784946402
H          -2.16703172954853   -1.70129280408438   -1.42726718095846
H          -1.29860730280585   -1.76838008536026    0.02886611076309
H          -0.71549170730726   -0.82035678408453   -1.24320700276245
