    26
        -50.46862855  Gyration_radius:  2.47493703071 Dipole_moment: 4.028
 S           1.78070833294159    0.88264638888730   -1.04727973688420
O           1.60562587469671   -0.55596662085846   -0.78404244846120
O           0.56434415040480    1.47010508351982   -1.53856563762961
O           2.38287338093162    1.56115571779708    0.08156980217752
O           2.85361943685814    0.96782739643011   -2.21522798568147
H           3.66499834647388    0.97374610420642   -1.71832392929595
H           1.15509670742204    1.65949944164695    1.11697492924821
O          -1.35477541421738   -2.00631410540821    1.26049736880474
H          -1.56779863752068   -2.74873973601472    1.82607246270254
O           0.42041512008183    1.62005503305743    1.77750598218163
H           0.43924855188923    2.45669915982485    2.24547706274474
O          -2.01447114891944    0.81158556990014   -1.65770840893980
H          -1.17177270804899    1.28983936837086   -1.77160335135501
H          -1.38937656802237   -0.55441166869919   -1.57103149751942
O           1.01286082157424   -1.07337900567759    1.78161276427121
H           0.85820173106074   -0.16856882131190    2.09336282393037
H          -0.43971287194685   -1.69622261013678    1.53040339686481
H           1.38590874751346   -0.95994040238493    0.88482961097945
O          -2.09427260648548    0.73985877983091    1.00476385188491
H          -1.24080570639851    1.12600052652870    1.26631271290782
H          -2.23819661272565    0.93466335506900   -0.70553185892019
H          -2.02909382324632   -0.20285030380512    1.20872429820342
N          -0.80052723234466   -1.44577460684725   -1.34358348503331
H          -1.12802944467187   -1.83198902604089   -0.43769449403875
H           0.19637327526727   -1.11370045829953   -1.20372779897435
H          -0.85144170254884   -2.13582456959908   -2.08378644417189
