    26
        -50.44630546  Gyration_radius:  2.69389131924 Dipole_moment: 7.795
 S           2.31253161122725    1.94285479844471   -0.30426821977428
O           1.18137681403404    2.36587954595356   -1.26673681154356
O           3.20225858672113    3.02791192463616   -0.13387479067299
O           1.70264000285030    1.41408225712057    0.90717518253530
O           2.97595605520404    0.75824377542974   -1.04439912106787
H           2.98874793263772   -0.04027380775801   -0.42045735920254
H           0.12953655553050    1.27077015259140    1.37066509835056
O           0.37265311019981   -1.96158269599787   -0.33320349269282
H           0.30924987833621   -2.84132943305682   -0.70593951897310
O          -0.84641811552595    1.17116553304503    1.46121688796493
H          -1.16193598793408    1.99001883334857    1.84570938049075
O           2.70216090788524   -1.06962530731716    0.70177425364642
H           2.37709543745181   -0.37348475675702    1.29027472364296
H           1.90324429397491   -1.51909796750412    0.35575201583688
O          -0.56486650455732    0.47217202068387   -1.16111045016815
H          -0.86340916956051    0.71551679789294   -0.26318826464132
H           0.50359126183665    1.62584957405812   -1.32867082008265
H          -0.12291745210702   -0.39146080236386   -1.05467886979173
O          -1.58456845212983   -1.53080427584882    1.31597839450132
H          -1.36907121629704   -0.65101166099513    1.65677718429443
H          -2.29611177531198   -1.38106528237128    0.65134166664287
H          -0.34127927367938   -1.89384778190481    0.36934573413404
N          -3.25641059292222   -0.87424175175859   -0.75294452678567
H          -2.60033104593670   -0.34869719648193   -1.32348273181246
H          -4.02046863540099   -0.25538043081596   -0.51228419358142
H          -3.63325423656384   -1.62256204232445   -1.32077132124416
