    26
        -50.46999491  Gyration_radius:  2.46238347527 Dipole_moment: 3.095
 S          -0.50032170791651    1.89698378204448    1.02657984305504
O           0.19203643600615    1.77461803033625    2.28651659644645
O           0.34212076909853    2.07269666229562   -0.12844522877182
O          -1.46330355317452    0.80284350916854    0.80354266537800
O          -1.39868941776625    3.20518382781087    1.16991799460548
H          -1.16741961396638    3.48535655294262    2.04898805814918
H          -1.09543181865637   -0.65874158495118    1.45318289216152
O          -0.80513815073360   -1.55291165658226    1.75670163217104
H          -1.29080426092949   -1.73509822402490    2.56191980557383
O           2.06831456414720   -1.07281167375465   -0.98980497365552
H           2.98401048790017   -1.35073906282359   -1.03264571736377
O           0.84405473858566    0.90352508012207   -2.44857858439762
H           1.44051304563423    0.20967423973833   -2.11314845753520
H           0.78751773907978    1.54241334033508   -1.71068178146456
O           1.64823348202740   -0.30690732839307    1.48219796621492
H           0.96591794181394   -0.94253163156624    1.74881841799140
H           1.94506170922958   -0.68266837262813   -0.08363239442498
H           1.29595317386648    0.55785562723625    1.76137613450095
O          -0.28481851619092   -2.48561128908252   -0.79460390438614
H          -0.46667393995761   -2.38286583276288    0.15434874653236
H          -1.06228806898826   -1.21600022218893   -1.40273630720073
H           0.62929178085795   -2.17039500652025   -0.92117151665843
N          -1.36461473978955   -0.22318495475882   -1.62705001724085
H          -1.49509346488643    0.26749934507578   -0.70302178047082
H          -2.21088562574766   -0.19443898961041   -2.18313063126460
H          -0.53754297954043    0.25625581254065   -2.11543948795643
