    26
        -50.45720848  Gyration_radius:  2.5117392703 Dipole_moment: 6.172
 S           0.01215902645405    0.21581893575011    2.24037183010520
O           0.40242512363542    1.34203830296012    1.36460066677585
O          -0.67572444400365    0.64418149798321    3.41217456954152
O          -0.79627434793143   -0.73095055463494    1.42964401620645
O           1.31720688383317   -0.53281895539245    2.64170794433855
H           1.78322383779106   -0.83855183033215    1.82433158206803
H          -1.82870755494148    0.32681070632566    0.88884239350977
O           2.50321253168103   -1.50383987127649    0.48095016281583
H           3.01157054193324   -2.26169194810608    0.77385392653806
O           0.13532418973089   -0.07464468532542   -2.39242103029968
H           0.53912890839284   -0.05582122884507   -3.26123474840813
O          -2.26821076389319    1.03025557995582   -2.10023281314442
H          -1.36203378168290    0.67342464794090   -2.26041220159268
H          -2.87803477224064    0.35137711055002   -2.39464268439667
O           1.87839242201637    0.91879028026296   -0.76070680077586
H           2.42478518791821    0.18196736772922   -0.45777987392537
H           0.79914213044446    0.36514647379704   -1.77509914973491
H           1.37030801586053    1.19244587646844    0.03791851211682
O           0.21718738750430   -2.17362696029041   -0.53979366400057
H           1.67751944499600   -1.86493156951308    0.03773200302457
H          -0.25678929841174   -1.75512565647238    0.21254501772826
H           0.08973785724350   -1.57248390662176   -1.29080137486004
N          -2.03090972926384    1.31682967237098    0.54176860141739
H          -2.21311794160447    1.31324217625124   -0.49625506886787
H          -1.08378850751881    1.72613606070694    0.76791680689394
H          -2.76773234794810    1.76602249777467    1.07502136696390
