    26
        -50.45720848  Gyration_radius:  2.51176147924 Dipole_moment: 6.173
 S           0.37889411533812    1.99086697973143    0.97938816035041
O          -0.86019690094970    1.74411528526691    0.21034443210350
O           0.16719239637689    2.83845204705158    2.10480661499780
O           0.94237492725589    0.67230304012968    1.36807897022377
O           1.40230230498239    2.65166131868282    0.00950400772962
H           1.55427068812485    2.05267504296360   -0.76306705911546
H          -0.36879199326163    0.09912595310537    2.02343697076294
O           1.95207989086838    0.99968089954604   -1.98728726102711
H           2.83025326963334    1.23308044433248   -2.29207565795448
O          -0.52909750096734   -2.01731876932843   -1.18247178071415
H          -0.70914234021317   -2.58810588751368   -1.93083717080059
O          -1.88533607772131   -2.43306339729341    1.06938594607471
H          -1.41157519123638   -3.14504050702521    1.50298498617371
H          -1.44383602008084   -2.30117657029273    0.19656587329901
O           1.96497169710077   -1.03026735945812   -0.37622117706803
H           1.68703802771933   -0.45618057325333    0.37142013694129
H           1.17708497738730   -1.54529412976735   -0.61202953797474
H           2.05091779706375    0.16654580848981   -1.43528736042590
O          -0.77709115054701    0.40829831719845   -2.04418887741539
H           0.08960739137013    0.67247661248406   -2.37921595304445
H          -0.68314119155122   -1.07843863518368   -1.51403433847809
H          -0.91012435714508    0.96429938175208   -1.24168124221968
N          -1.43406549461685    0.01735879778406    2.02359000709802
H          -1.61582971244670    0.72979259096458    1.26523579493405
H          -1.83947193812968    0.30352133274729    2.90835071561625
H          -1.72928762436113   -0.94936800312085    1.72530479994238
