    26
        -50.45720846  Gyration_radius:  2.5116462087 Dipole_moment: 6.171
 S          -1.87632020555551    1.08542473548052   -0.60526105036475
O          -0.82874006242765    1.76033385752363    0.19145897794155
O          -2.51478051065602    1.96289144917535   -1.52844252407963
O          -1.25237930665392   -0.08169909579791   -1.28024566922694
O          -2.92736675415483    0.52049319524111    0.39518454917112
H          -2.47989944256072   -0.09703488696350    1.02542319460687
H          -0.05590093547388    0.70433146767752   -1.93544006152074
O          -1.78887753973083   -1.26008462967590    1.99257752027613
H          -2.48782177743942   -1.85391170650923    2.27077907580364
O           2.01235706162069   -1.02038198185398    0.81069840270613
H           2.64402263855088   -1.35889432705030    1.44683061167193
O           2.94860452502531    0.17640549210125   -1.37422005109513
H           2.66104153986072   -0.23973345843950   -0.52669141782013
H           3.15522569919087   -0.54629730901383   -1.96950734964332
O          -0.39661867471707   -2.21426573663459    0.02601353064525
H           0.51934070682960   -1.95660118236586    0.21642918736775
H          -1.26476222761499   -1.74362204732212    1.28540541213102
H          -0.74354752708229   -1.51868656257051   -0.57533298371281
O           0.38425140128127    0.48864787968409    2.13715046888788
H          -0.32821799217257   -0.08297594762575    2.45162378218095
H           1.41835786259819   -0.39089823635913    1.32658646270475
H          -0.04491208456933    1.07045385508624    1.46770407697812
N           0.67509402445554    1.48080853249589   -1.87218677917705
H           1.63749633440408    1.07091070057701   -1.74369384097733
H           0.31771561130411    1.91869885124098   -0.97979702824154
H           0.61663762571464    2.12568711189543   -2.65304648721282
