    26
        -50.45807537  Gyration_radius:  2.42111354199 Dipole_moment: 7.656
 S           0.98505207389980    1.41904720906281    1.36536900634580
O           1.95989084823044    0.97157901838222    0.38100362115569
O           1.46247100861774    2.31743381210806    2.35781489700274
O          -0.18824794176805    2.12035290263375    0.54683854576542
O           0.28226828362541    0.23992728266233    1.95612137789592
H           0.37202419369210   -1.29068656817124    1.43553798529440
H           0.18189953010531    2.26344367484383   -0.36648676437034
O           0.29416906064187   -2.21296084187952    1.07699578927494
H           0.48965927585886   -2.80052963078372    1.80755403372953
O          -0.13730329732010   -0.42190539956614   -2.38247301897912
H          -0.08823380023381   -0.75324093796062   -3.28001448616992
O           0.90743772683427    2.08417623972788   -1.77749613461540
H           0.47031676184364    1.29726225014327   -2.14958820086100
H           1.65650142369395    1.74457132037389   -1.25742136027683
O           1.85687326609261   -1.28432271966392   -0.98322263948118
H           2.05493930038528   -0.46509385052762   -0.47707064560726
H           1.45154670704948   -1.87576822489451   -0.33010586152327
H           0.67073605719340   -0.78674548939440   -1.90290509097359
O          -1.80341159647430   -1.50618389763820   -0.54946391740766
H          -1.12583915290796   -1.98456973030525   -0.03793787129610
H          -2.14086840830630   -0.36438244955574    0.43363981253683
H          -1.31639679771760   -1.10117292961443   -1.29864498499394
N          -2.13137433763933    0.41136383961123    1.18318781925281
H          -2.15922641295000    1.33262907085365    0.74714131837720
H          -1.13384451020580    0.34942093450578    1.63406304964038
H          -2.87103927224080    0.29635512504702    1.86756372028534
