    26
        -50.44630541  Gyration_radius:  2.69394160521 Dipole_moment: 7.796
 S           1.06375355294304    1.30799047112124   -2.52436291603722
O           0.22131265156990    0.07651836665723   -2.92244532859329
O           1.22277429507518    2.14208227108035   -3.65444422282278
O           0.44871407825835    1.91894000222594   -1.35487032834121
O           2.40334274028187    0.68284795786719   -2.07042175651168
H           2.60800318550669    1.01330733692945   -1.13443937029705
H          -0.91848878578204    1.54898714945049   -0.51604902252087
O          -1.70187531233049    1.14959410548651   -0.07176284476427
H          -2.47095238252780    1.54045028076369   -0.48846958001185
O           1.34964641642070   -0.61417717808346    1.37893401724496
H           1.83265143000484   -1.18512795348188    1.97695989776022
O           2.52603475960858    1.56907448698216    0.30966799362468
H           1.74580325130491    2.09688922149857    0.08762714932410
H           2.18902979534329    0.79085320616298    0.80037232880935
O          -0.33948901390603   -1.12620436453977   -0.71212526516013
H           0.03738643345893   -0.47910845441710   -2.10493708820905
H           0.40647100052457   -1.05316813082657   -0.08706860145054
H          -0.97428378511927   -0.43944931584203   -0.42936673164149
O          -0.96832150569000   -0.00661593696181    2.37625289242604
H           0.51655439792047   -0.32968480807990    1.86136342036492
H          -1.31631133372923    0.60790546795359    1.71454792086979
H          -1.42496403031488   -0.86108986928900    2.19791200903432
N          -2.03465954876875   -2.36663685085773    1.48193055503703
H          -1.57332388806223   -2.41423879028182    0.57805397102676
H          -3.03354822737420   -2.35520395485088    1.31824647267867
H          -1.81526017476500   -3.21473470654217    1.98889443820226
