    26
        -50.45860923  Gyration_radius:  2.40819051935 Dipole_moment: 7.093
 S          -1.24067494395751   -0.53459526886446   -1.41939417576083
O          -0.78838335026798    0.86996065842358   -1.36843920409110
O          -0.58435215119706   -1.30173283892399   -2.43507427789054
O          -0.79233611158983   -1.14967593595986   -0.00404804602817
O          -2.68545439710149   -0.60539084277410   -1.33703673192864
H          -2.95094770103669    0.44963247776536   -0.13057691651188
H           0.14691359857937   -1.43434378779874   -0.00496699571155
O           1.60546894480414    0.65574677512372    1.65592949557309
H           2.31081595695760    1.09210269140365    2.13527653245507
O           2.07228924725759   -0.90307269140617   -2.05898165857285
H           1.15892115794967   -1.04774330635162   -2.37137064859846
O          -1.05180648818891    0.27120953946666    2.31365702279169
H          -1.07396912834651   -0.54053365358900    1.78488229042064
H          -0.13221393297158    0.58109259807115    2.22080152183639
O           1.70437601190007   -1.82061876138742    0.61613269599660
H           1.65660522848586   -2.49814958121049    1.29239412809227
H           2.20298194071435   -1.52117498377527   -1.33221748370936
H           1.78605792689143   -0.95574870843317    1.07811855618827
O           1.73301254306658    1.43060506865775   -0.78552295929456
H           1.65068655383676    1.02234347703791    0.70939526122179
H           2.11528754592456    0.68410592094281   -1.29677405590208
H           0.79767570960504    1.41532863716178   -1.06768741990524
N          -2.55608479862870    1.29514931171729    0.37349084302501
H          -2.10343835474444    1.01250605938004    1.28380478991219
H          -3.21745012416411    2.05773374401816    0.46936144133808
H          -1.76398089403264    1.47526338120255   -0.32115398507492
