    26
        -50.45860909  Gyration_radius:  2.40816655379 Dipole_moment: 7.097
 S          -0.74126004480387    0.88552961670580    1.58339770847442
O          -1.67364635250190    0.29182386358409    0.60436001499939
O          -0.57769256909741    0.08772705071923    2.76140834145028
O           0.67608388838246    0.89989276159785    0.82613030010186
O          -1.01165082759369    2.29918601228570    1.74834561054307
H          -1.18401299889381    2.73771259817829    0.19164825342960
H           1.13702795840331    0.03558394392870    0.88612480609945
O           0.02318899068148   -2.40787485859901    1.88453597801654
H          -0.28476053457822   -1.59656271962799    2.33158560429601
O           0.88023987547125   -1.18768445287836   -1.88722232300831
H           1.00707728261213   -1.79219295295188   -2.61944631808866
O           0.87584023426030    1.57511748968972   -1.81275436205265
H           1.18386512999588    1.55953553393740   -0.89406207272269
H           0.82067177283849    0.63188306115045   -2.05294859315378
O           2.19969984066399   -1.24709675260715    0.45384565041254
H           1.82692997602151   -1.31218803460082   -0.45433211455217
H           3.10418168150598   -0.94205037764028    0.36634615663290
H           0.95716330021892   -2.26664247414776    1.69714406110056
O          -1.11165940457952   -2.04085304751237   -0.51538235727440
H           0.05593978454474   -1.52225823033496   -1.39634551551596
H          -0.73872190792137   -2.44727314030299    0.29736971240411
H          -1.50689643619078   -1.21660089390827   -0.17022485663247
N          -1.43602318758820    2.38407256065855   -0.77561654006993
H          -1.77580523954604    1.42255495224880   -0.45449820267997
H          -0.56863704285819    2.22216803289659   -1.35443634720234
H          -2.13714315943098    2.94649044752747   -1.24497259502592
