    26
        -50.44630548  Gyration_radius:  2.69387339436 Dipole_moment: 7.796
 S           2.97591400113580    0.42233179855393   -0.42643939425463
O           2.49810705565914    1.36839908079900    0.69675215135550
O           4.38347329991128    0.30838739499298   -0.36489918708779
O           2.22458220008832   -0.82026432595234   -0.32267496756319
O           2.50654611958023    1.14182293786812   -1.71211148067585
H           1.94573559594639    0.49373762387751   -2.25306812843840
H           1.08827496190745   -1.32579496156626    0.75578609410502
O           0.36771574929362   -1.44303560110850    1.41733977180629
H           0.78306751090109   -1.80718649945990    2.20010019678270
O          -1.22462823977908    0.27945562602164   -1.58591226712981
H          -1.93687899435536    0.62140388926468   -2.12692557926613
O           1.03391183826191   -0.66701999809007   -2.72421437081828
H           1.35915580769863   -1.24144630134407   -2.01647523367934
H           0.15280982960800   -0.35572843234936   -2.42962937567979
O          -0.07171284084533    1.16123535358470    0.73395275670858
H          -0.05332634474587    0.26443762052462    1.12133252714123
H           1.49304618304097    1.39097223558800    0.70743573499120
H          -0.41562966496617    1.03824814689136   -0.17106258327533
O          -2.14117223473133   -1.40483660464241    0.16322037811838
H          -1.62104164651188   -0.43886419603527   -1.00736276258833
H          -1.32907148249258   -1.71073389326474    0.59163237062577
H          -2.53220398648190   -0.75331525984055    0.79010689031996
N          -2.85495814305409    0.64467994827075    1.83565861516050
H          -2.04801166518171    1.24654017700091    1.69863592296152
H          -2.89945368158102    0.40722475181343    2.81868798370415
H          -3.68425122799090    1.17934949832541    1.61013393662230
