    26
        -50.45019009  Gyration_radius:  2.49748147168 Dipole_moment: 5.274
 S           0.63890999515879    1.58543577908124    1.70921450456201
O           1.55451231711112    1.74435781488057    0.60165166956727
O           0.57067996221958    2.63687879609703    2.65192723437618
O          -0.76811368910331    1.29252556613693    1.09542914730078
O           0.93889401738101    0.26474763413166    2.44560770525277
H           1.06491126619095   -0.49101905178178    1.79613736052171
H          -0.74608574973625    1.66758937317421    0.14849345624303
O           1.23783805399123   -1.74572603597734    0.85938997165210
H           1.31063523240128   -2.53299479084325    1.40135275655149
O           0.22585808995483   -0.15225492818193   -2.45743882056188
H           0.40044330631420   -0.25666548371971   -3.39348101336373
O          -0.37617568202373    2.17479197897178   -1.24164194678710
H           0.52039377033421    2.41027184309098   -0.96326021506730
H          -0.28107516188283    1.36370837201328   -1.78760480766268
O           2.43516380636301   -0.16324809431591   -1.06697154013304
H           2.32453534477063   -0.91653950504745   -0.47009154651831
H           1.11416205236622   -0.18577425097192   -1.99740938832953
H           2.29406882340856    0.61747197104222   -0.49863720425802
O          -0.80434456447108   -2.00818425592267   -0.66702070291429
H          -1.59106060434980   -1.62135375051774   -0.20919574124747
H          -0.59682101607129   -1.40661815055094   -1.40085600904704
H           0.41787757714512   -1.87873227005842    0.27316281001227
N          -2.81584512862943   -0.77297763072121    0.64884150080984
H          -3.55859012832768   -0.38847443673872    0.07866181025920
H          -2.26804186152915    0.00476657676375    1.00617735714728
H          -3.24273001898253   -1.24198306003544    1.43756161163915
