    26
        -50.45019002  Gyration_radius:  2.49740018878 Dipole_moment: 5.272
 S           1.28243961984833   -0.26924042407542    2.03048892333355
O           2.13385365979825    0.37969981379671    1.05873155919456
O           1.67130860996743   -0.19505405329415    3.38773544957707
O          -0.15610043175111    0.30697293731612    1.82904154201418
O           1.08349642418526   -1.74764648072745    1.64137715767517
H           0.87816294623166   -1.83993925085382    0.66251070684208
H          -0.03632844782515    1.21187624767303    1.37674914578617
O           0.50961990947995   -2.08297164923684   -0.84972451150190
H           0.29939072319420   -3.00969237855181   -0.97539260197114
O           0.02917732153930    1.54576157923582   -1.92917866174587
H           0.10394891125548    2.08147805953985   -2.71972024942046
O           0.43300933844787    2.42746662020304    0.58382569174404
H           1.36334756921303    2.17224950519353    0.66174430430851
H           0.18053134088033    2.23327294189436   -0.34544139903284
O           2.12863034938378    0.02939220324406   -1.60117542905501
H           2.32723790390220    0.19814530864272   -0.66066811914463
H           1.76550574134110   -0.86723124132480   -1.61158081703734
H           0.85712991350598    0.98496527237636   -1.88676810854447
O          -1.54805205043509   -0.69860762466900   -1.49673969123116
H          -2.10121017078813   -0.56098983263334   -0.68848232011342
H          -1.16091720130906    0.16655814474466   -1.70895966784739
H          -0.32586734113643   -1.56434587404065   -1.10802463382799
N          -2.86022679032414   -0.28113599275545    0.82850710153559
H          -3.42686928933939    0.55584506873025    0.88318654298554
H          -2.03815103228008   -0.13481107039311    1.40769175351520
H          -3.39306749698211   -1.04201783004756    1.23026631197066
