    26
        -50.45019002  Gyration_radius:  2.4975660303 Dipole_moment: 5.273
 S           1.20321131661853    1.44744638740853    1.51717988726363
O           1.65876631509291    1.74368187761728    0.17739949239026
O           1.47373108647399    2.40450460837146    2.52202399311368
O          -0.32913515741537    1.15599368904496    1.42069140936308
O           1.75375235973194    0.07788790074933    1.96194087110228
H           1.64178334230930   -0.60953165503549    1.23831539441159
H          -0.65066109239383    1.61635503431442    0.57072479633024
O           1.47227296011121   -1.76585745658729    0.18147280329644
H           1.73817419154194   -2.59582848387508    0.58057181380123
O          -0.67223376491819    0.08169813768156   -2.37791095104218
H          -0.84538165133985    0.07040893761054   -3.31993528234430
O          -0.80769963767486    2.26239049589045   -0.80218799654540
H           0.12778784951844    2.50751116964098   -0.84101008282091
H          -0.91170978342519    1.50892296463984   -1.42384245323274
O           1.88925872444960    0.03319803678455   -1.87671373915923
H           1.95803016467924    0.75225698948683   -1.22039903054499
H           2.00433283466224   -0.77529954476770   -1.35794651191213
H           0.32210220466471    0.04223459284124   -2.27125712617436
O          -0.98095031325043   -1.97013729629567   -0.53248109092763
H           0.49704232902345   -1.87770825778317   -0.08339549201206
H          -1.55210055695764   -1.65852347083853    0.21241974673976
H          -1.05402064757409   -1.29627693823500   -1.22819519509239
N          -2.39000840120046   -0.94174140184485    1.53148452217158
H          -3.29052182977840   -0.53769852127828    1.30654399903333
H          -1.75442291106852   -0.17800546078562    1.74473820268037
H          -2.50139994189526   -1.49788233476231    2.36976802010285
