    26
        -50.45019001  Gyration_radius:  2.49747077735 Dipole_moment: 5.273
 S           1.34188262420003    0.19876514705851    2.00028970569697
O           2.01438429267170    0.92851297568231    0.94889086330190
O           1.72599533542860    0.47620867349158    3.33235281789074
O          -0.19119929097152    0.42740299350173    1.80153773559432
O           1.46735562027439   -1.31612639184066    1.74309537865913
H           1.27157955865286   -1.53750033333232    0.78315295327443
H          -0.28057855417773    1.29241417967220    1.27104097919832
O           0.94154648549885   -1.98803209992758   -0.69006025420816
H           0.93904399083805   -2.94568630455114   -0.73106064229797
O          -0.34187571280357    1.33625642726780   -2.05211502902833
H          -0.39946472677173    1.80199854114798   -2.88717298856122
O          -0.10286225685408    2.50524066886476    0.36302140039540
H           0.86192993920088    2.46694388049990    0.42952274428198
H          -0.32096823789255    2.17866474001484   -0.53740649128299
O           2.04511903356816    0.35015215497681   -1.67106114634703
H           0.58987777425882    0.97586611045771   -1.99158769092438
H           2.21669055408817    0.64146532138117   -0.75557945191592
H           1.88757107772212   -0.60122891256649   -1.59342622796998
O          -1.38040266765657   -1.14931815534417   -1.37854513087625
H          -1.93716199628517   -1.06395773915104   -0.56552377313415
H          -1.19626497012813   -0.24309929425367   -1.67573696364384
H           0.00832867198436   -1.68936159514370   -0.96158260573556
N          -2.71438043910006   -0.82305899888362    0.94877672011300
H          -3.05979992188206   -1.64360068138407    1.43015036085756
H          -3.45074160215140   -0.12850613377319    0.95424323887439
H          -1.93560460164679   -0.45041517389794    1.48478349776184
