    26
        -50.45018991  Gyration_radius:  2.49745820843 Dipole_moment: 5.273
 S           0.73482469906624    1.50329600210177    1.74380781469815
O           1.40815546087301    1.88764433279591    0.52347019859554
O           0.71008621597854    2.44605564168924    2.79711868363470
O          -0.71340506910316    1.07182117649479    1.34570048131963
O           1.32313116118637    0.17742793387255    2.26586250633807
H           1.42378461514311   -0.49152032258119    1.52344589058868
H          -0.90893014683165    1.52811668660349    0.45618244559545
O           1.58067113484554   -1.62037086184633    0.43560696868038
H           1.84904051645989   -2.43412966926495    0.86521415921305
O          -0.20840743549441    0.09851856017293   -2.46189066032585
H          -0.19555706055872    0.10254392124614   -3.41967443922531
O          -0.86205425924490    2.20216696856751   -0.91141129997878
H          -0.76861754609587    1.46349021769355   -1.55221542108763
H           0.03419757042213    2.53611671703905   -0.76331574550094
O           2.20090626251831    0.28116557006729   -1.47373567802113
H           0.74590756294395    0.15186287789469   -2.16482568875716
H           2.06959075795234    0.98028449221377   -0.80556266352379
H           2.29513827629752   -0.53008222006166   -0.95510608273187
O          -0.65665459489698   -2.03599846315699   -0.74351684929836
H           0.69077928663066   -1.81705553548109   -0.01520411113862
H          -1.38776524716231   -1.80703451168322   -0.11798180792210
H          -0.66310982671556   -1.34821295450928   -1.42936638569009
N          -2.52876457595201   -1.22203812727111    1.02710660898553
H          -3.40846210382603   -0.90295135583026    0.64113184062443
H          -2.02820477173256   -0.40621290100533    1.36846041732366
H          -2.73628086269942   -1.81490418576596    1.82069880759587
