    26
        -50.46456598  Gyration_radius:  2.39514874708 Dipole_moment: 4.080
 S          -0.11594528352155   -0.35107460130126    1.74151948752239
O          -1.48808404228499   -0.64389283927105    2.05073874943462
O           0.88270752213025   -0.68893164022145    2.73324015244033
O           0.30490163653397   -1.24214401305948    0.49578068635247
O           0.06162697974010    1.04645811205011    1.28246255232882
H          -0.78598042021136    1.69692421496769    0.10222472932423
H          -0.43946871858242   -1.35565617917748   -0.14957990586117
O          -1.27859872964391    2.04497360677909   -0.68503774228731
H          -1.32144413263438    2.99617795029960   -0.58093487683868
O          -1.59558226168703   -1.58196364000222   -1.28290104294427
H          -1.96883062233205   -2.46301209986583   -1.22983708967372
O           2.48466853528824   -0.73167358611891   -1.18511871520489
H           2.65211076054743   -0.02258940469490    0.20798975732131
H           2.08246919018304   -1.56326785600326   -0.91584015475121
O          -3.08333946877470    0.06407218465267    0.02760276713753
H          -2.65794752258040   -0.15539250195423    0.88333382615849
H          -2.68820541393848    0.90339790880410   -0.25891989472962
H          -2.27809582794093   -0.96474290487703   -0.87402389397238
O           0.26865172333325    0.32645355896105   -2.24371157475009
H           1.75874470206788   -0.25268934896258   -1.65491294234856
H          -0.34672531534231   -0.41729470973967   -2.21624458913588
H          -0.20938312028584    1.05444917396780   -1.81463053476641
N           2.54024416498891    0.46783351938552    1.15335565135009
H           1.66946975414117    1.05936240151464    1.08545499453595
H           3.36821439998783    0.97963065784280    1.43854953136934
H           2.18382150081859   -0.20540797395962    1.88944006201190
