    26
        -50.46456601  Gyration_radius:  2.39509966663 Dipole_moment: 4.081
 S           0.45580401545135    1.19578193416776    1.23833074592869
O           1.87593673364464    1.11506231047983    1.44046687320661
O          -0.23472219966536    2.34823247404835    1.77680401506952
O           0.19101277352484    1.32024093444403   -0.32278985861071
O          -0.23169748150376   -0.05415864073985    1.63883324303675
H           0.18777628416258   -1.49614744484719    1.11033784204406
H           0.83835395398020    0.78884439089082   -0.85386681175874
O           0.42822997560808   -2.36796260620561    0.70334716855502
H           0.16747037080249   -3.04297104354003    1.33092371186681
O           1.84290205223908   -0.07180958899097   -1.81400140497915
H           2.48988067674146    0.49385205192583   -2.23813709191192
O          -2.23780949153746    0.75116861829107   -1.59383847886397
H          -2.44328612407980    1.04933354220579   -0.06403147040868
H          -1.55221001142495    1.39038408552526   -1.81093013785955
O           2.86358825360637   -1.09895643946185    0.31748753590922
H           2.33114338741486   -0.54612235725802   -1.07194441536182
H           2.65211107293659   -0.30922000747791    0.85880045458889
H           2.17926923029464   -1.75565514794185    0.52514669627714
O          -0.65677340356826   -1.40355297218760   -1.67743557168468
H          -1.77943824802705   -0.12303322321215   -1.64717615322857
H           0.16760738235177   -1.03944057471155   -2.02448635786042
H          -0.39351583127846   -1.87965640636600   -0.87328098987676
N          -2.37487661797142    1.16689067511052    0.99816092208145
H          -1.76453068389316    0.38170190563249    1.35019679395509
H          -3.27965884557530    1.22470943578362    1.45297936785044
H          -1.72256720422471    1.96248410443100    1.25010338202178
