    26
        -50.46456599  Gyration_radius:  2.39513031928 Dipole_moment: 4.079
 S          -1.09181522952083    0.61570631538120    1.26526685087765
O          -0.32442243171607    1.43479049528893    2.16208345347068
O          -2.53440916490967    0.69986622794733    1.34689762274737
O          -0.79102682862465    1.10016218628188   -0.21720866096836
O          -0.65260570535515   -0.79910113539294    1.29578293111014
H           0.85927658958181   -1.25478026959749    1.09314153402061
H           0.15161755688414    1.38603860370018   -0.33176204376845
O           1.79651270974319   -1.50618964249730    0.88823246582074
H           1.95212914984295   -2.34965037541047    1.31466749266300
O           1.68925344619908    1.85668529641199   -0.62543584674585
H           1.75834837053099    2.81109001474626   -0.67818797916860
O          -1.24366257435066   -0.41325579486716   -2.52920501199938
H          -2.11272150096973   -0.92639318986113   -1.32380083489749
H          -1.28149667686350    0.53748575178907   -2.38621192770883
O           2.29265386560164    1.08022516406428    1.75642447641270
H           2.34758020036732    0.12261504986854    1.60595667344456
H           2.06078547689788    1.59959691361307    0.27449965633496
H           1.38755667012157    1.24831784538102    2.09390793564416
O           1.29220831808256   -0.72072170205185   -1.73920299501259
H           1.52073078652603   -1.15192766064094   -0.89984178189827
H          -0.30806137188921   -0.65280156126679   -2.31837142767187
H           1.58482682222019    0.19308155207161   -1.62984731236439
N          -2.53257685230283   -1.19989041803126   -0.37743107102684
H          -3.22815862079016   -1.93493784666138   -0.44610070377537
H          -2.87051195514275   -0.34492394965016    0.14858538738556
H          -1.72201109014248   -1.43108789057137    0.25716111705412
