    26
        -50.45442128  Gyration_radius:  2.4297866983 Dipole_moment: 8.080
 S          -2.18112405498164    0.74254461053559    0.23678229298632
O          -1.32715978286661    1.73303041561212   -0.43654841216132
O          -3.50039490200514    0.65880534342537   -0.28911099526651
O          -1.42468633530060   -0.64132298325094   -0.02908412980573
O          -2.09189098040461    0.87148240612866    1.69855780378365
H          -0.78484571368682    0.46110480801810    1.99551861424546
H          -1.05135907732010   -0.49042612971044   -0.93495217501813
O           1.40227712320404   -1.77530096306384    0.56251110040316
H           1.96628872430669   -2.50120174695394    0.83317377631267
O          -0.35000332727131   -0.00304566977948   -2.30673208552702
H          -0.77787812618111    0.85314809094382   -2.16391025431886
O           0.96374158315002    2.29109274452581    0.50955839037060
H           0.04669703433074    2.11531237170398    0.12064392781708
H           1.03463056096467    3.24353761425349    0.58076235511041
O           2.02597790165891    0.35680320875030   -1.16068403055864
H           0.59460891747604    0.13941282364429   -2.04761176362702
H           1.81861639892407    1.14525134285321   -0.63388109092444
H           1.99553449053932   -0.39151880306004   -0.54571077852835
O          -0.17316248519287   -2.75822607989750   -1.34684284464850
H          -1.04652802795687   -2.65832691137775   -0.95397764529942
H          -0.13510086652097   -2.11674153362449   -2.06738346006027
H           0.79320185513662   -2.14721648461679   -0.12531384393885
N           0.30865859617539    0.24822348796928    2.12272080458264
H           0.77459602754698    1.07175574607336    1.69206236932318
H           0.56916885830379   -0.59847446126184    1.58679969884984
H           0.55013561796246    0.15029676215362    3.10265237588149
