    26
        -50.45442138  Gyration_radius:  2.42970608508 Dipole_moment: 8.080
 S           2.06812781965160   -0.55743681861031   -0.88051842413067
O           1.78917573751937   -1.26942844902885    0.37600817525419
O           2.74105498098595   -1.34329286164473   -1.85708655633667
O           0.61197497682116   -0.18244609357663   -1.42561206851908
O           2.65498036070545    0.76535413373274   -0.62163528203444
H           1.60805823537905    1.49107531759270   -0.03628737803059
H           0.08357094200883   -0.96754022540485   -1.13044407789584
O          -0.65944726517856   -2.20255201987892   -0.39991390703881
H           0.20437765210328   -2.44479579643124   -0.03735091110139
O          -1.81763094031197    1.41769989805232   -0.34798674513570
H          -2.53837670364036    2.03227462812178   -0.49331606182574
O           0.87665652998400   -0.00428775325616    2.38118612435283
H           1.41842873530947   -0.21718578121233    3.14169682998747
H           1.26598869179081   -0.53497286984222    1.61311395782335
O          -2.03850184387995   -0.42044715026844   -2.26280203193401
H          -1.87849233259666    0.75079805244727   -1.07873646987555
H          -1.20983404241557   -0.30889599682709   -2.74024933712023
H          -1.96862018332805   -1.27138519254035   -1.81197271626892
O          -1.67023511826605   -0.67080132291283    1.52881587180885
H          -1.13869529320923   -1.77361692890372    0.35252800509847
H          -0.85113050266007   -0.48431637452297    2.01509286183974
H          -1.85075993678028    0.11821769137447    0.99601755167381
N           0.76193983818630    1.94664505076174    0.54131944205014
H           0.91806120942269    2.93609897694219    0.69863301950911
H           0.75215251503835    1.41205082682977    1.43289682853804
H          -0.13282404263437    1.78318705899881    0.04660328931252
