    26
        -50.44859333  Gyration_radius:  2.50062529711 Dipole_moment: 4.921
 S           1.11147999427512    2.15765425380603    0.62681483147561
O           0.90440301836425    2.18935794434963   -0.80367475755379
O           1.37808141173324    3.38922884192670    1.26623560115404
O          -0.13488165656079    1.46031830966384    1.25180396946769
O           2.25067792562222    1.16319220621960    0.95279875771040
H           1.94975844102792    0.22747176296912    0.77703444654514
H          -0.75692131216957    1.22186236166823    0.47142194682738
O           1.40138629266776   -1.27477033556540    0.71926243912154
H           2.07815266390260   -1.87628825484037    1.03432201478232
O          -1.47658468032930    0.92447221557232   -0.81882976406900
H          -1.01152977491524    1.60589126222533   -1.31978655117767
O           1.62932579615066    0.42059004252134   -2.67311357009956
H           1.45427101775868    1.10286478045586   -1.99489054623389
H           1.90873935486757    0.88915601516235   -3.46021023475127
O          -0.17499393888607   -1.24258479920722   -1.54519554938294
H           0.42870779778190   -0.81496067394376   -2.17864575204187
H           0.38682506263927   -1.41716531648444   -0.77218840741667
H          -1.07597640965284    0.06111389090549   -1.12254706282184
O          -0.53279325640152   -1.08665953153762    2.39239501978269
H           0.67003239850877   -1.26233138331397    1.42285706052836
H          -0.55620767082552   -0.12518298321847    2.46284811464798
H          -1.30452576577139   -1.33107062652369    1.81363363288186
N          -2.46496527580290   -1.57946226412467    0.59109202652934
H          -1.98777407792195   -1.95537882249949   -0.22079516632617
H          -2.82177280114245   -0.66762092148252    0.32941999916237
H          -3.25291456475609   -2.17969797464919    0.79793748108812
