    26
        -50.45102756  Gyration_radius:  2.44980496137 Dipole_moment: 6.278
 S           0.41649604569178   -0.92076398736736    1.76443237928878
O          -0.75273918962243   -1.75001689348057    1.39041888565091
O           1.66024246342950   -1.63044197826457    1.72373321295222
O           0.47945836899051    0.16857465472861    0.58712399956338
O           0.12005422877913   -0.10764214045864    2.92485018639418
H          -1.26835574512589    0.60139095047317    2.30336637968224
H           0.86766031497490   -0.34800428942547   -0.16862044337723
O           1.68283917710606   -1.45594950056406   -1.02974741246693
H           2.02797604766850   -1.80596223198262   -0.19301777400185
O          -1.93039524460200    1.01185983232657   -0.94091925971403
H          -2.72418186426623    1.09090041279333   -1.47271891690372
O           0.73621500223036    2.30224623119319   -1.06729819077655
H           0.70847142469704    1.79955709232449   -0.24033083335358
H          -0.12837126741605    2.14829614500218   -1.46157796371231
O           2.93635271286199    0.81162055205913   -1.74093365381503
H           2.32359546198456   -0.80074931618359   -1.37943102630151
H           2.17265576707458    1.41783735596606   -1.65478010128115
H           3.63325675170146    1.18480173471716   -1.19892972417443
O          -1.13016319882085   -1.48143162265979   -1.24203401442908
H          -1.05434470135738   -1.76370693993921   -0.30695847456725
H          -1.57400312670217    0.09851844225120   -1.12180467963315
H          -0.24696755614472   -1.62128107574203   -1.60612085263287
N          -2.09499684599131    0.37022707006032    1.69072241278962
H          -2.04295367888210    0.83413966679982    0.75176604245673
H          -2.98637535400783    0.51049170532786    2.15447753750652
H          -1.83142602426665   -0.66451186006713    1.53433228480472
