    26
        -50.45372247  Gyration_radius:  2.53134204947 Dipole_moment: 8.100
 S           0.66180093304467    0.05273692580186    1.22198444677432
O          -0.39602733438101   -0.96700339717312    1.37094201492834
O           1.98154215395388   -0.49806106547406    1.32867640522085
O           0.48370715092704    0.57848113215581   -0.26898089529462
O           0.39053789706193    1.22075896275990    2.04353206381133
H          -1.13812585253454    1.33820139273745    2.02524642320554
H           0.60801440300893   -0.26623920795075   -0.78787854385459
O           0.95857402593347   -1.77222177509235   -1.20574852214408
H           0.84904635908173   -2.22887393302745   -0.36572840942500
O          -3.13139823059637    1.04918460993204   -0.51877269556644
H          -4.04682295448042    0.91020364921958   -0.76678535726696
O           2.71258823361243    1.61871389562107   -1.59353846632693
H           1.94632646949656    1.47506099532536   -1.01733836257492
H           2.37198417930760    1.95319978992511   -2.42483758233163
O           3.42619109419505   -0.98251046228877   -0.92336804891454
H           1.94231629627691   -1.60844465023831   -1.27719374327228
H           3.45309871847679   -0.08131484697748   -1.28466704646815
H           3.19850382425185   -0.86090406627501    0.01529128350481
O          -1.88522931134552   -1.27439708278760   -0.82803132604826
H          -1.26118331308608   -1.50488968383679   -1.52224112615506
H          -1.35587656940278   -1.27238202453126   -0.00287015796156
H          -2.64838915449234    0.22847187223936   -0.78207234523144
N          -2.10366483865656    0.86974619863752    1.93613861717215
H          -2.57788124328372    1.11864234889684    1.03128784775943
H          -2.69575189105093    1.01815345382692    2.74588227748021
H          -1.74388104541264   -0.11431303144581    1.85107122903063
