    26
        -50.45147137  Gyration_radius:  2.53212378194 Dipole_moment: 5.413
 S          -2.15899417774675   -0.71740221221014   -0.07945951491679
O          -1.14050648345122   -0.60546063777292   -1.10968464276706
O          -2.73853265439592   -2.00345860406028    0.06413910430695
O          -1.49308589653721   -0.25407738162840    1.26049967899026
O          -3.20453758427024    0.36282803353665   -0.27654418080248
H          -2.69697464587422    1.30902517885847   -0.19678297689425
H          -0.72632241738189   -0.85978530752749    1.46811692485603
O           0.57379837227496    1.37423803993867   -0.77102306344008
H           1.36923944532868    1.13624486921473   -1.26772701257358
O           0.62119663906249   -1.66703513294010    1.75518953694294
H           0.67276314736846   -1.91318032447932    2.68024981141412
O           2.80787514908317   -0.29308899248018   -1.33023790747486
H           2.17078999684373   -1.04858013699471   -1.26187483912973
H           3.46314972326307   -0.55888203578972   -1.97529820959426
O           2.11110694179590    0.39370356522910    1.25063281144644
H           2.72372751802484    0.11198450718991    0.55350305884594
H           1.45774023584766    0.93152190948740    0.76183404233507
H           1.25760461466748   -0.89860338824153    1.62379574664355
O           1.01174077936523   -2.22794557530547   -1.00250755554467
H          -0.05093387981111    0.63484867097498   -0.93835097206226
H           0.94884609620011   -2.41706075160580   -0.05850828505269
H           0.18020056777981   -1.76913063358907   -1.21902662151174
N          -1.93682105066673    2.53840024004284   -0.02304469057701
H          -0.98457695445395    2.36346106548167   -0.33992036096780
H          -1.91552237908167    2.75550292901149    0.96444302747786
H          -2.32297110335154    3.32193211567631   -0.53241290998102
