    26
        -50.44251547  Gyration_radius:  2.66068665833 Dipole_moment: 6.942
 S           1.92715214389251    2.25809780283325    0.83044251126176
O           0.51223580017842    2.05156472379221    1.02917350183394
O           2.39674737839656    3.58703248327772    0.77331766278132
O           2.69390201819633    1.45253592248060    1.89339442383468
O           2.30637353821835    1.54883274557077   -0.52211041342093
H           1.90262653704648    0.66367268338978   -0.60975591742972
H           2.22431698936466    0.55886943346992    1.96638466480600
O          -1.20969680999403   -0.20591743731831    1.51464342856763
H          -1.27512394946951    0.55020789197474    2.10219835785295
O           1.27370966921901   -0.91128540311176   -0.97597264425640
H           1.80581595861797   -1.39835866048969   -1.60615748854917
O           1.42444169516672   -0.75219450737429    1.78339039988789
H           0.45912400115492   -0.56531120573886    1.81864308169944
H           1.58948943964630   -1.04350250804647    0.87411812498113
O          -0.92519515036752    1.04490026174907   -0.93324392212063
H          -1.23278213788729    0.17892525333863    0.61458355373995
H          -0.46433630162018    1.64195794085216   -0.31046042464342
H          -0.22682900011656    0.57350049974960   -1.39968339340959
O          -0.83421258916768   -2.29261484461331   -0.42489286945824
H          -1.03517821530874   -2.06056586722706    0.48853495476909
H          -1.59462029162312   -1.93516176413205   -0.95278396977127
H           0.44846580841983   -1.47248614239772   -0.80545263592520
N          -2.86363926021135   -1.05038595513159   -1.69073502353333
H          -3.03782654716194   -1.20421434826570   -2.67558014948408
H          -2.51594581650295   -0.10247627492875   -1.57741112909273
H          -3.74901490803874   -1.11562273369631   -1.20458467490725
