    26
        -50.45260114  Gyration_radius:  2.4972309161 Dipole_moment: 5.349
 S          -1.10724316555915    1.62063905074504    1.20257576108045
O          -1.20513535683039    1.88096768909693   -0.25588854286612
O          -2.15238413824525    2.22858693300295    1.95081276295932
O          -1.02464532973095    0.15256283761042    1.39508161332655
O           0.26311560374099    2.20267088377020    1.67238952417551
H           0.97918630922516    1.74432794746297    1.17872909766241
H          -2.04990603550606   -0.38589271039859    0.33634962937600
O           2.23600537138140    1.10033337175126    0.25479030208508
H           2.87398339188183    1.79334627891624    0.07545513875166
O          -0.50453750038692   -1.65329533646496   -1.86280592747631
H          -0.33146693312411   -2.41642876644084   -2.41443277716751
O           2.76238498927020   -1.41717248652813    1.17748234875082
H           2.85046470414479   -1.35311439876901    2.12991218783652
H           2.67383826181680   -0.50459711302149    0.84628272738856
O           0.21336745656367   -2.09154829406252    0.56805685495178
H           1.17384361248208   -2.00606740310012    0.73638408234464
H          -0.19306429115461   -1.32691093023582    1.01817093565583
H          -0.16600201456384   -1.88574404649163   -0.93980975896001
O           0.69012707594600    0.88305027290295   -1.79308595048153
H           0.35359143701823   -0.01289667290414   -1.95223315894609
H          -0.02885695836124    1.36220629643385   -1.32177153446249
H           1.72172302324862    0.96584392385730   -0.59944433744453
N          -2.46680503229211   -0.28341514583335   -0.64484730236335
H          -1.92523441556047   -0.89633886735339   -1.29001726819239
H          -2.16814707186801    0.73037971308826   -0.77943773094080
H          -3.46820300357099   -0.43149302704182   -0.68869866703569
