    26
        -50.45260127  Gyration_radius:  2.49736758211 Dipole_moment: 5.349
 S           0.35112821130930    0.74696342798344    2.14858335821615
O           1.42196353937254    1.22521816964946    1.23775281315384
O           0.20014155476326    1.55629929609082    3.30791336705645
O          -0.89461076423489    0.62033472964742    1.35434357362462
O           0.74408164485055   -0.70023781923090    2.58308453559869
H           0.80234617007994   -1.25993470862788    1.77698502537168
H          -0.84054474046305    1.89178006821897    0.43256461085901
O           1.06555371226514   -2.22731775924330    0.41927996928691
H           1.81716801386466   -2.79824395268454    0.58831708134898
O          -0.23812385356357    0.98211328769813   -2.33222171439787
H          -0.46937297726796    0.96271008676677   -3.26107244826504
O          -1.36882574594693   -2.97184276181862   -0.57464394218353
H          -0.47167212650229   -2.80172495557392   -0.23337941905959
H          -1.88120016122418   -3.30533463556110    0.16374299527824
O           1.88848070792611   -0.19619463962302   -0.93337337752429
H           1.23336691188119    0.17311911718727   -1.54627353063828
H           1.85797975783187    0.37201300589200   -0.13034810206503
H           1.39572331087606   -1.50606156620297   -0.19949782541768
O          -1.93633443639587   -0.34945132479433   -0.93189112480625
H          -0.92321163033204    0.41297350622378   -1.85575195415829
H          -1.81677082221814   -1.32071864199064   -0.94985297979411
H          -1.68048806478648   -0.07817312368233   -0.02995352562455
N          -0.23213477333125    2.55038820260417   -0.15230679946428
H          -0.48212767183141    3.52898364950775   -0.07151215781568
H          -0.22911842268819    2.19973026942973   -1.13321527500395
H           0.68660269569672    2.29260907216048    0.32272685645751
