    26
        -50.45260128  Gyration_radius:  2.49758693683 Dipole_moment: 5.347
 S          -0.89663565809826    0.87813683583700    1.93024649381162
O           0.49841528987655    1.34654445038077    1.72881398320392
O          -1.66373908232030    1.74639263745780    2.75466953047698
O          -1.49624791619719    0.65601097394620    0.59287515512509
O          -0.80530351275597   -0.52451850034300    2.61000083144443
H          -0.31210011481526   -1.12635739190893    2.00923159395608
H          -0.94768299731230    1.88153640149609   -0.23453670412941
O           0.65792914459945   -2.15755582345647    1.08991591757189
H           1.19244517808020   -2.68791103765095    1.68363197005012
O           1.08757537629631    0.84489213720207   -2.13764601739782
H           1.40486055831546    0.76946506787441   -3.03780719162983
O          -0.80801905862500   -3.05109637585244   -1.03605960369777
H          -1.64235986423005   -3.36999170096332   -0.68775467651845
H          -0.25462827547860   -2.82728697933444   -0.26527356880819
O           2.08820073201913   -0.17583893769813    0.27703573787077
H           1.88156716192944    0.13397853876053   -0.61873754810058
H           1.61891893623949    0.43532066460941    0.88931190311851
H           1.27341005249029   -1.46006994266184    0.70694933381746
O          -1.09597219282497   -0.47588119123350   -1.81702154816703
H           0.25556527606763    0.27486637684213   -2.07971314035074
H          -0.98208636463793   -1.44109981280692   -1.70146760996877
H          -1.38146714279566   -0.14664832685247   -0.94365300750012
N          -0.11725300493659    2.52702150230737   -0.42692667168158
H           0.42843614072298    2.12311157626579   -1.21731376364311
H           0.38525792518770    2.32780118044893    0.49284335874216
H          -0.36908659678647    3.49917768732260   -0.56161474761196
