    26
        -50.45260110  Gyration_radius:  2.49753276194 Dipole_moment: 5.350
 S          -1.81766800890472    0.40802877240492   -1.35215393421800
O          -1.44223641686411    1.62282665240092   -0.58568316159994
O          -2.54159898919807    0.69804937582466   -2.54113498082328
O          -0.58105968574652   -0.37412990139168   -1.59354903202511
O          -2.70938349869604   -0.46067906778423   -0.40996045763379
H          -2.18315743647259   -0.69133527058138    0.38777637438297
H           0.46793051705123    0.74509686954123   -1.92038020354286
O           2.32222359090143    0.95951969373466    0.39236725412987
H           3.21773619039171    0.95242026580133    0.73094139126221
O          -1.38076177872414   -0.98818852340045    1.84261224858694
H          -2.01343656696552   -0.93322306093633    2.56106858729751
O           0.44915128920087   -2.97208755156178    1.41519683998830
H          -0.00976247633900   -3.68356162509331    0.96550185991052
H          -0.22868679117999   -2.31288493955819    1.65252729416174
O           1.62894900085320   -1.37833234706275   -0.42659465155465
H           2.11024119875123    0.00819534740349    0.12693604561298
H           1.36201926396054   -2.00232436202549    0.27866350466289
H           0.80491594214517   -1.16632417759978   -0.90457370309045
O          -0.14957809435581    1.26819337203291    1.68435229003140
H          -0.84391615323599   -0.13803840977225    1.87731156550417
H           0.76763410474877    1.20893390021681    1.37407405858605
H          -0.68483775428409    1.52421935152072    0.89900006580267
N           0.83112167046789    1.72922979607830   -1.70359495516934
H          -0.06638985191046    2.07268467916776   -1.24411981540725
H           1.10926138676393    2.25946081140382   -2.52099305549431
H           1.58128936763108    1.64425036921022   -0.98559142938281
