    26
        -50.44496006  Gyration_radius:  2.50303806115 Dipole_moment: 6.382
 S          -0.20933623340659    0.40478528983985    2.36158682772065
O           1.15179242591149   -0.00944305870288    2.17461967162783
O          -0.59880844246689    0.92673707908893    3.61787199335417
O          -0.55781727893890    1.43297565979032    1.22744444055815
O          -1.16143427111971   -0.76439119596421    1.99027469696307
H          -0.74739780515084   -1.34960865405231    1.29256451309610
H           0.27945609867901    1.81243341735039    0.82157043581012
O          -0.25644290431908   -2.33608854555068    0.13461006565750
H          -0.80948468676243   -3.11872914560865    0.12648993403646
O           1.74329131846018    0.35113413410389   -1.71972202995291
H           2.45832047682491    0.34173157400888   -2.35766555892101
O           1.42350580002824    2.41798637213959   -0.06768152973471
H           1.59807187079166    1.68698735470110   -0.70657116183496
H           1.08818669249776    3.16006179844892   -0.57484004495450
O           2.32113560170247   -1.31808166248363    0.16989861734974
H           2.00644099325842   -0.31032463988598   -1.00568756420827
H           2.11086745994170   -0.80286659204200    0.97304466983937
H           1.62298886345285   -1.98665492861519    0.13378798848668
O          -0.72112490058698   -0.93119906229006   -1.96844942631579
H          -1.43620259447523   -0.33578493667029   -1.63433811040698
H           0.08258735195415   -0.39022877236139   -2.03389356507098
H          -0.44908136017724   -1.83874943840369   -0.72651870725030
N          -2.58138497534596    0.59911163509491   -0.74071095939887
H          -2.01095472804004    0.99222382723329    0.00380751174218
H          -3.27361017586033    0.00536017284412   -0.30043826148960
H          -3.07356460685594    1.36062231798675   -1.19105444670355
