    26
        -50.44731985  Gyration_radius:  2.52061103541 Dipole_moment: 6.567
 S          -0.26051731835810    1.82599118046840    1.62851521198911
O          -1.06289450265124    0.63814724136615    1.46455596100507
O          -0.49758042734257    2.61050177345668    2.78081414057411
O           1.23813378211320    1.36816250851242    1.55047345796130
O          -0.37463898935392    2.70984273976176    0.37068471552425
H          -0.21813889776372    2.16914990953520   -0.45782572294654
H           1.24615909119095    0.49673701426363    2.07418749898760
O           1.08406282194435   -2.20493020320601    0.29415186832985
H           1.23930532318270   -3.13860876492172    0.14938838364778
O           0.21940567137449    1.42777904568303   -1.80368866785048
H           0.62941449517040    2.09708913520411   -2.35587895043988
O           0.91075801722423   -0.89156616150335    2.64182389321322
H          -0.04626650904838   -0.76457484713829    2.66084167001306
H           1.08276646771906   -1.48585159942465    1.87823072431234
O           2.15992076992726    0.06303089276015   -0.75335307036699
H           2.21688832726017    0.58471584554486    0.05861041853758
H           1.86328844603400   -0.82384881267873   -0.47236392847064
H           0.96539073095842    0.83998824799449   -1.48150907755802
O          -1.42066937985147   -1.67355884191226    0.06964500641703
H          -1.46169168930108   -0.86630081306142    0.60849337570118
H          -1.65901690930139   -1.37831474585832   -0.84082086713939
H           0.09505341021976   -2.05173698405631    0.15337431199474
N          -1.95841852954505   -0.55985489410219   -2.34701715379932
H          -1.81634400675631   -1.03769415050214   -3.22752223169489
H          -1.28836121071738    0.20131222686156   -2.28728353554070
H          -2.88600898431976   -0.15560690305926   -2.35652744240575
