    26
        -50.44731984  Gyration_radius:  2.52086046607 Dipole_moment: 6.574
 S          -1.85821682016257    1.52908686201209   -0.51810145757626
O          -1.23239415443424    1.26295632749048    0.75435262296250
O          -2.76502299679840    2.61243935871143   -0.57694556846847
O          -0.69810728586930    1.70100943213221   -1.56032312423344
O          -2.54715744636975    0.25156346331261   -1.03746603824323
H          -1.92277903068908   -0.53044969616688   -0.99428936016803
H          -0.00032682815805    2.23661085511314   -1.05058405325069
O           2.40680333732254    0.50885217449080    0.25935337265259
H           3.29915249750431    0.41072563015801    0.59248561733206
O          -0.93233342751459   -1.77434755681657   -1.15051693455320
H          -1.24187696859231   -2.26768104596010   -1.91328723818281
O           0.96100164848394    2.77138829769514    0.02293361838148
H           0.36452201452443    2.63488137213467    0.76989608447511
H           1.63285407255168    2.05704541011172    0.08818719680563
O           0.70331344519406   -0.12329443631020    2.07732901380517
H           1.78782723264100    0.20905158744990    0.99989952705790
H          -0.06238701598538    0.38490022215620    1.76250967402228
H           0.42178767603303   -1.06630265015426    2.01109345837029
O           1.11583399106270   -0.40009145997599   -1.95562405312805
H           1.69642904069188   -0.15191772768009   -1.21077264673981
H          -0.08280836126409   -1.32536913217058   -1.43761745262420
H           0.61738620074961    0.39975906521192   -2.17121144434557
N          -0.27560861379602   -2.61924885664611    1.65037061769666
H          -0.59639268496512   -2.46816696350545    0.69843029579238
H          -1.08885736633861   -2.79024580347032    2.22770897783184
H           0.29735786417029   -3.45315471933861    1.66218929432136
