    26
        -50.45860902  Gyration_radius:  2.40811675607 Dipole_moment: 7.101
 S           0.50649376697652   -0.70647658590466    1.75598500918178
O          -0.60742739203466   -1.34817711726752    1.02988366831474
O           1.72544807698720   -1.45565714094652    1.69463395506053
O           0.76040772079303    0.66826987330167    0.96340634527270
O           0.06142412700206   -0.23237483370150    3.05069439738076
H          -1.34287228800816    0.46545467582292    2.62811046288207
H           1.32603135524707    0.54058016974203    0.17167329255587
O           2.13966308253618   -1.97359374153282   -0.93558772289506
H           2.06152291035784   -1.95285119603011    0.03714136747154
O          -0.56795987690836    0.76986651761953   -2.19759840564483
H          -0.87271280934036    0.83077478348985   -3.10376885598479
O          -1.31619505462289    2.19037435160676    0.05213913578066
H          -1.25542120852898    1.74443219697790   -0.81260192525056
H          -0.43611583212198    2.06360184156443    0.43725754965372
O           1.99343660362632    0.83783575243169   -1.38646367838084
H           1.10662831844321    0.87110678913754   -1.81135358325806
H           2.37085222258740    1.71638973092446   -1.45184221879827
H           2.50311378914164   -1.11849668027882   -1.18877404690083
O          -0.44739318774072   -1.71805388846639   -1.58706904449494
H          -0.58134371867380   -0.22060078337013   -1.97102051640151
H           0.50416106188378   -1.96155667334051   -1.58887131601765
H          -0.65753290745542   -1.71726836452664   -0.63283336626927
N          -2.12099016349750    0.46279679838762    1.90729025611273
H          -3.04973243725201    0.40859143893375    2.31061348260256
H          -1.79995884452235   -0.42378420622694    1.40440654705144
H          -2.00352730484002    1.25881628152225    1.22454924096782
