    26
        -50.44340969  Gyration_radius:  2.45069636342 Dipole_moment: 3.517
 S           1.84014812525687   -1.21320487194912    0.15719263328193
O           2.02707101719029    0.08471558712220    0.80026242518945
O           1.10070409111148   -2.14815642496776    0.97314584990672
O           1.33766795372387   -1.08158060074436   -1.19773313053425
O           3.29838648278621   -1.82194249632000   -0.00265943384865
H           3.53035946297731   -2.07039049151960    0.88690895100525
H           0.77005879773810    0.24013624609728   -1.76974610505599
O          -1.99204151929550    2.10196940898934    0.72323371235839
H          -2.34214057794781    2.87054998305428    0.26835463303107
O           0.40659027856196    1.12909600777711   -2.06192663954540
H           0.99829956774547    1.44343196106802   -2.74753434211515
O          -1.11525848831504   -2.27302612963497   -0.56584307499547
H          -0.40979921100402   -2.30649992306367    0.10487784679010
H          -0.65105644884375   -2.38397830782765   -1.39960520764692
O           0.51780583143047    2.02109619012997    0.33954941954472
H          -0.45446332814710    1.94497143352751    0.70602911395790
H           1.08728223018019    1.22282973967841    0.68858877612947
H           0.44985169073501    1.81427451565062   -0.65161263791971
O          -2.12926937939007    0.19261452461168   -1.07121124840887
H          -1.42269465637361    0.47349058211911   -1.66384654873234
H          -1.88378263123358   -0.71346639576660   -0.78834080870097
H          -2.17596060093541    1.31697996089819    0.14218228702723
N          -0.65306735725173   -0.00443302453369    1.84366401592358
H          -1.57840270075454   -0.40754054893185    1.75934838419477
H          -0.56790446027847    0.32955425812579    2.79571683602093
H           0.01161581033656   -0.76149118358171    1.73100431314261
