    26
        -50.44340956  Gyration_radius:  2.45025369741 Dipole_moment: 3.522
 S          -0.85868660598905    1.69621992497878    1.12196046806950
O          -0.43962884110016    2.12435410417580   -0.20985555450708
O          -2.12502513380820    1.00109524518746    1.12065411714204
O           0.20050525673420    0.99927488066700    1.82754347816076
O          -1.08912105791823    3.03479684815522    1.94527206748265
H          -1.89759754373176    3.38015531682682    1.57917695254279
H           1.49437989308858    0.50043467251929    1.14009872960739
O           2.29731654467459    0.19645709492768    0.61982181639512
H           3.03765773825736    0.70382469410131    0.95663213258485
O           0.81429109940286   -1.61123160119039   -2.37552743802848
H           1.65561941935154   -1.94322600766035   -2.69515422613650
O          -1.18493808404263   -1.43377047789425    1.81320448470505
H          -0.63157218035427   -1.12610759778090    2.53576934893892
H          -1.66552617383939   -0.63664939713135    1.52605797198596
O           1.14799690186748    0.78262513387285   -1.59579983744627
H           0.78663677678568   -0.12258971566890   -1.96481376129715
H           0.37435593935827    1.30884083205334   -1.14049046617999
H           1.73140201978693    0.53705400167568   -0.80250398182430
O           0.82087769591639   -2.23678590398847    0.17220095079082
H           0.00780179047678   -2.04961138808168    0.68725615407293
H           0.69664492066858   -1.96836342554319   -1.45546257520156
H           1.47574893557640   -1.60677570679499    0.49394336802806
N          -1.38172354942181   -0.34710025596361   -1.34172847518348
H          -1.63430351618683   -1.31242950438266   -1.16761583022708
H          -1.84881504198915   -0.07518599388087   -2.19797808488618
H          -1.78429720357875    0.20469421681491   -0.59266183958832
