    26
        -50.44340979  Gyration_radius:  2.45033310521 Dipole_moment: 3.502
 S           0.09069668299862    1.07046573189671   -1.92877152548389
O           0.10161942817654   -0.37366068123681   -2.14574162920472
O          -1.22796025375475    1.59203703679123   -1.65339718724203
O           1.10382018889909    1.48500082012411   -0.97623902747234
O           0.53993384922907    1.71132014802375   -3.31094839023381
H          -0.22563009904138    1.59501353943117   -3.86536839328293
H           1.87976957414282    0.49437186478090   -0.07484872543279
O          -0.55883842714677   -2.23882642719475    1.89236451978394
H          -0.01174539068596   -2.76391759894325    2.47991477399331
O           2.32907558413988   -0.20863943843926    0.48338072916529
H           3.24793940506926   -0.21504565855097    0.21020409101884
O          -0.79190768669692    2.29592394948042    0.91720077604295
H           0.04464039300046    2.74112451623293    0.75946547184281
H          -1.11039440720546    2.06581120858664    0.02593366403564
O           0.19635140545773    0.22824266444980    2.37031099703107
H          -0.42874058781794   -1.28881289557956    2.15338278007662
H           1.06634463689125    0.21682783446881    1.95525779142860
H          -0.29488120799467    0.94764836951744    1.92037695403279
O           0.66258661602289   -1.98375069733835   -0.32017498184180
H          -0.03606732818142   -2.07177694964091    0.44769871429050
H           0.27636960640669   -1.38431906798094   -1.07825242710285
H           1.40309959695744   -1.39942511091844    0.05408723821026
N          -1.80974346449807   -0.74218743242398   -0.02669631950488
H          -2.46296233762356   -1.42885370173741   -0.38310533198233
H          -1.75362958974634    0.00258549842604   -0.71209835442108
H          -2.22974619700469   -0.34715752224199    0.80606378225283
