    26
        -50.44340970  Gyration_radius:  2.45076619811 Dipole_moment: 3.513
 S          -0.81220542674744    2.03310161551092   -0.29959246521256
O          -1.65911580007238    1.27392171553373    0.61645875266238
O           0.37959453512858    2.55264922000025    0.33017331853425
O          -0.56503113859326    1.31278539946310   -1.53475538561908
O          -1.67408984715256    3.29682763353526   -0.72630549946607
H          -1.66222045132361    3.84380132647823    0.05316161465427
H          -0.88654458391209   -0.19019840629132   -1.72127605807873
O          -1.11162668007102   -1.16770919685549   -1.75880011796904
H          -1.82161220202393   -1.25065628372104   -2.39755959821987
O           0.49301094746914   -2.60205921820367    1.37649933267727
H           0.31403771414811   -3.51741148402953    1.15228697689430
O           2.16571416595062    1.02171331966796   -0.99575474251495
H           1.78982240061034    1.16579683652856   -1.86807782252714
H           1.65131970744626    1.61130017400345   -0.41566578242108
O           1.56757846322412   -1.61777210364239   -0.80540775508132
H           1.04989740188377   -2.23107098328457    0.64173571472915
H           0.78862370718491   -1.58613576327423   -1.37249513148897
H           1.89870208407680   -0.69555024620137   -0.77060864309241
O          -1.54769179290462   -1.21690562507305    0.76766740035484
H          -0.68170618908323   -1.61452946279535    1.18877327294669
H          -1.53977755332075   -0.18054027144366    0.86403304931408
H          -1.44089912915146   -1.33647813506477   -0.23431200002296
N           0.66004898771937    0.08927173319179    1.84094623995925
H           1.64245696540506   -0.13711877012857    1.74319708038717
H           0.46495792528469    0.11017712434107    2.83429613747939
H           0.53675580880781    1.03278985178446    1.49138211114006
