    26
        -50.45109192  Gyration_radius:  2.49272806103 Dipole_moment: 4.671
 S           1.87859731400277    0.13125619448514    1.31740062622949
O           0.73172534255037    0.27051876473874    2.34476927785517
O           2.70366470192665   -0.98334148350195    1.62189578423437
O           1.29915319034690    0.09964421771018   -0.01207919580775
O           2.63423368516558    1.45632283554071    1.49582478436354
H           1.92021784406524    2.13896689242468    1.33638770412251
H           0.82686756676968   -1.51881094988051   -0.09069062263142
O           0.37847476075686   -2.36947818525616    0.08876674989980
H           0.97421386780575   -2.84839941607324    0.66943837448366
O          -1.46594977994828    1.62465665610965   -0.20335645635063
H          -2.18875365122642    2.18075333512036   -0.49778882738498
O           0.47936304702320    2.86436726272611    1.24676890486017
H           0.14076205066238    2.72898659012785    2.13589759279505
H          -0.16462857958735    2.42521065461857    0.64866154161057
O          -1.37229823244268   -0.63566057677554    1.30379354073872
H          -0.16174340690500   -0.12218814344061    1.99768512399547
H          -1.53197049588779    0.11340875280639    0.69464436104149
H          -0.97902826674421   -1.36047527810231    0.78301449612903
O          -0.18773129764902    0.68053007952523   -2.22926901418052
H           0.59586082954659    0.52469126515097   -1.68390076807137
H          -0.57393621901671   -0.21423117114792   -2.38907097583686
H          -0.99322447780882    1.30614279171697   -1.03581735730411
N          -1.17971292249373   -1.85558648076384   -2.40263977791280
H          -2.17007510713013   -2.00960761904109   -2.26085294894138
H          -0.68379792549922   -2.28912147517858   -1.62918782361071
H          -0.91028384828275   -2.33855550361611   -3.25029507430069
