    26
        -50.45521600  Gyration_radius:  2.43524220748 Dipole_moment: 2.496
 S          -0.44774658036605    1.20318106557312    1.34970358856199
O          -1.53803941167577    0.53535338229294    0.67241672979611
O          -0.37049850184200    0.98278602705988    2.75466671076203
O           0.86775797194148    0.78615641162334    0.66316541872348
O          -0.49526625574970    2.70822973992164    1.04302773598264
H          -0.74641230940777    2.75401455568605    0.07317738543331
H           0.94096020967350   -0.27880510039544    0.55742276880824
O           0.25664273048189    0.52339197444623   -2.74237640666183
H           0.42210824852067    0.61072483737172   -3.68231478572611
O           0.97475669757184   -1.67435324756458    0.35578229693856
H           0.57771405553776   -1.94481233691140    1.23452078704658
O          -1.30007773076050    2.30176965035133   -1.35780712954633
H          -1.86911987610436    1.64581930518176   -0.93217255725424
H          -0.68178443523969    1.78475940537917   -1.91020177790024
O           2.52630569679034    0.00754738312146   -1.44714720299686
H           2.43244945506338    0.64006888508707   -0.72585018371978
H           2.39975051827440   -0.85935504924995   -1.04296137401332
H           1.13230081205954    0.35317791352389   -2.31595301728993
O          -1.09906825563958   -1.36773169474502   -1.20248557660551
H          -0.75459425514826   -0.79382987605612   -1.90520205359724
H           0.22844332800162   -1.76494382388795   -0.29748147199852
H          -1.46628234248580   -0.76551173766231   -0.53122490253938
N          -0.33323254764943   -1.90208544132868    2.63007557326129
H          -0.36426224841138   -0.90474144329654    2.84110763097068
H          -0.00594213333910   -2.38304362332432    3.45890944854254
H          -1.28686282010949   -2.19776713220026    2.45920234503363
