    26
        -50.45521600  Gyration_radius:  2.43520853405 Dipole_moment: 2.493
 S           1.34726660394811    0.59464454463176   -1.13994237256835
O           1.57353538852513   -0.65647947896767   -0.44942802210990
O           1.35873610243996    0.52154641131718   -2.56223708830703
O           0.01342480856587    1.18236586970820   -0.63886076874102
O           2.35470632109920    1.64511908649038   -0.64662907612329
H           2.41540687857058    1.48221873096366    0.34098454663498
H          -0.77831769204983    0.45935834812511   -0.67458958701189
O          -1.78061777216579   -0.53253680034638   -0.65252299572916
H          -1.54308886359699   -0.98077149778039   -1.51601290156789
O          -0.25425449223473    0.49089627204934    2.74789940468404
H          -0.45807466839203    0.64795560240520    3.67102337548339
O           2.28472908110172    0.73937386261710    1.75199822742432
H           1.40374722551901    0.77705235323495    2.17307761741611
H           2.31612543518990   -0.11812980237773    1.30599841058534
O          -2.03466951546845    1.71154866918951    1.18711925678799
H          -0.93266944210094    0.98080912370152    2.22133281413773
H          -1.42645861132215    2.12243204721737    0.56221513280474
H          -2.46867902526397    1.00580303143276    0.69267274438367
O          -0.32406955101491   -1.77695759340605    1.12298135641740
H          -0.29151531202061   -1.14103455777718    1.85529295845462
H          -1.40711657791171   -1.12847798750725    0.05275467367424
H           0.45239973790142   -1.57750415629441    0.57032005642052
N          -0.64424858989730   -1.54428555214877   -2.80190904715580
H           0.08748383016286   -0.83842088285060   -2.88319701146079
H          -1.07719444429640   -1.64654477311990   -3.71165959993530
H          -0.18658682529185   -2.41998087050483   -2.57868209459380
