    26
        -50.45109188  Gyration_radius:  2.49263338544 Dipole_moment: 4.674
 S          -0.12920221506033   -2.22146972570148   -0.57468823685884
O           0.67848991197520   -2.25644329799121    0.74309464431382
O          -1.31598807167300   -2.99317622709773   -0.46620900668998
O          -0.34999527231211   -0.83460589547127   -0.93813083280320
O           0.85710322311248   -2.84334339232978   -1.57434258195031
H           1.66190938841863   -2.25580234246103   -1.48263526343184
H          -1.66509811416423   -0.47453111232408    0.05685001774517
O           1.88822958318133    1.11327511259847    0.15915804680509
H           2.54287638183828    1.80903868704451    0.23442399341406
O          -2.22474217778542   -0.32280074603109    0.84466765281493
H          -2.68449294047369   -1.15312158281241    0.98834920796725
O           2.76895085730868   -1.24914551165124   -0.87366457446235
H           2.41742520902424   -0.37742746071736   -0.58755198156324
H           3.01916600029235   -1.70524702249670   -0.06562959004195
O           0.02326158451745    1.81907438481583   -1.46970023127318
H           1.20188429929484    1.43753039785614   -0.50545929220854
H          -0.22047142173008    0.89481613541683   -1.61823358497688
H          -0.69488113209012    2.18780179340121   -0.90087945588335
O           0.26968654816804   -0.10057574512665    1.97472725028030
H           0.52553278056911   -1.41307530375361    1.32474251208164
H           0.81708637196949    0.46865919717628    1.39681449371989
H          -0.66322664968695    0.03678950608065    1.72570138634684
N          -1.96496322653528    2.58565882266312    0.23496156001573
H          -2.29603009311996    1.67388472881383    0.53685251635499
H          -2.73413043485560    3.05543739691426   -0.22548659823392
H          -1.72838038023762    3.11879921332096    1.06226796850464
