    26
        -50.45521629  Gyration_radius:  2.43501436773 Dipole_moment: 2.506
 S          -1.65761721863966   -0.84700689377666    0.01447763212441
O          -1.63903453430287    0.57099545875841    0.30193145586383
O          -2.43187312976066   -1.23411913245270   -1.11654951904824
O          -0.19956264037218   -1.32191978271964   -0.13932705251718
O          -2.10700015039327   -1.62021749175018    1.26414962004861
H          -1.65408814360885   -1.14545258110058    2.02267862382784
H           0.35328696697538   -0.69765158081599   -0.81642012430144
O           1.73501413812139    0.40379172866607    2.16690148635850
H           2.41506039274984    0.53847705739382    2.82858918506956
O           1.07698631443514    0.18509672425528   -1.64060733072975
H           0.36155762852577    0.34740243967444   -2.32273704941888
O          -0.89032340682985    0.00147479738641    2.83474405043019
H           0.07631448409439    0.04832084081208    2.69945804016838
H          -1.26189809082788    0.67052359522984    2.24351752674634
O           0.64430926019528    2.01825730196235    0.16860659453293
H          -0.27440712773842    1.69894472343994    0.21670141758638
H           1.08636253248937    1.65546924017080    0.95260231558650
H           1.06469729370073    0.99681939510927   -1.06344506273974
O           2.54994441091380   -1.36189865187551    0.34650848511188
H           2.56815684701496   -0.88170413569084   -0.49003319440309
H           2.08583362658312   -0.27020397155853    1.53433235227752
H           1.75644482355515   -1.90802461979608    0.30851121447596
N          -1.14544637549863    0.52381158895924   -3.01072444857222
H          -1.71161923204512   -0.12638406290708   -2.46577026596111
H          -1.28025891692451    0.30478872993803   -3.99013217126116
H          -1.52083975241507    1.45040927268626   -2.84796378125339
