    26
        -50.45109196  Gyration_radius:  2.49274568174 Dipole_moment: 4.673
 S           1.12726542361385    0.25290242585284   -1.98688268361140
O           1.93274871787452   -0.85993713045986   -1.27771766105554
O           0.62655693787208   -0.19756052975953   -3.23674240602797
O           0.10773590483169    0.73168235107322   -1.07277304600949
O           2.18481795139209    1.35191729899471   -2.16709525372732
H           2.50380784882180    1.50461515340244   -1.23105898337739
H          -1.06425494025415   -0.46441542658074   -1.28419087119843
O          -1.52554902366797   -1.32694646270837   -1.29444203285113
H          -1.40126541308511   -1.66637208656833   -2.18368933098844
O           0.89557031063776    0.37992466528860    1.97060947933563
H           1.02818063966405    0.53064464935685    2.90767722832381
O           2.87535107122609    1.27156189995232    0.32392208048092
H           2.11389573400655    1.02960349436099    0.89556782891872
H           3.42292982599393    0.48336652976626    0.27456471955790
O          -1.18386410062182    1.65748679089445    1.14974279528253
H           0.08634272545925    0.92111423786410    1.70588218266484
H          -0.85928040893648    1.63504768662044    0.23878333981636
H          -1.92192279993418    1.00196049511347    1.17767114513222
O           0.47590709601794   -1.87144189834198    0.50713185250777
H          -0.38302257692508   -1.80888281302974    0.04937927558654
H           1.37842077792694   -1.35094913155962   -0.55333500208350
H           0.52989817599069   -1.12507308463246    1.13786224893828
N          -3.06653437543315   -0.31545435294669    1.05068143600231
H          -2.77297806181120   -0.79309106505319    0.20342577933489
H          -4.00637326474464    0.02863998425588    0.89993462544977
H          -3.10438418592767   -1.00034367117545    1.79509126364899
