    26
        -50.45109197  Gyration_radius:  2.49266777462 Dipole_moment: 4.670
 S          -0.46459432669709    0.82705657944691    2.09325077463240
O          -1.56658043336867    1.47083201928741    1.22072033643412
O          -1.03029810847357    0.04851225641493    3.13709631965728
O           0.43668608329377    0.09503891021141    1.22372413561806
O           0.27088148579338    2.05770231434738    2.64394509062209
H           0.53435691483078    2.54610380046476    1.81137745778225
H          -0.44461242781140   -1.32931173599167    1.01581168689160
O          -1.14614555712270   -1.96454719320688    0.76837599145451
H          -1.68609271100907   -2.05998802343944    1.55627429135812
O           0.55221608214930    1.25666139899318   -1.71586798656476
H           0.86008145355128    1.56566034685471   -2.56915932539635
O           0.55134406237589    3.09820216664714    0.29281342936365
H          -0.34063753875432    3.44475180178393    0.20468072931315
H           0.63401146451872    2.40219520512489   -0.39562234307644
O           2.10586626058290   -0.59409848069108   -0.82656444572301
H           1.67719959327401   -1.44417296407250   -1.08901819189064
H           1.20994072386844    0.55461301944276   -1.41190967953868
H           1.81026883220256   -0.43039132798298    0.07981373718327
O          -1.78013819371957    0.12717754644163   -0.89591857682823
H          -1.73874127847731    0.94329019392689    0.34598896707428
H          -0.95486074412662    0.44245383049143   -1.31695343692551
H          -1.60318253954808   -0.75825272933421   -0.52720340763961
N           0.69216549305193   -2.85529536405432   -1.40511035514391
H           0.21264062858795   -2.92454047493953   -2.29387975347450
H          -0.01227115732850   -2.81135524842971   -0.67439306665230
H           1.22049592834313   -3.70829782767964   -1.27227239853679
