    26
        -50.45109194  Gyration_radius:  2.49276254098 Dipole_moment: 4.671
 S          -1.87708872473228   -0.15221612419914   -1.31724858162192
O          -2.16916384391146   -1.16891277213418   -0.18978470107015
O          -2.88087716964924    0.85033331272718   -1.37239456243432
O          -0.53201985972305    0.35910217063992   -1.13372012393647
O          -1.90088744080627   -1.04235521243814   -2.56855630159575
H          -1.21608344302317   -1.73979707570918   -2.35426655929823
H          -0.81836639743353    1.52457547234686    0.05319902763421
O          -1.06244223355090    1.95764785353146    0.89564966354887
H          -1.97269932084395    2.23862506035953    0.77776245810022
O           1.38235717227776   -1.67125925026691    0.35585571615190
H           2.13937707470753   -2.20147907601970    0.60927154649299
O          -0.25138246510024   -2.74837394568318   -1.54059884980802
H           0.37720471423955   -2.30872335522773   -0.92679538765462
H          -0.88259401879756   -3.20732039683473   -0.97986021262246
O           2.16162093227507    0.53801116971575   -0.71273105807161
H           2.15492808587273    1.20044767379657    0.01966026855980
H           1.74978511551681   -0.83596827467001   -0.07438878255756
H           1.30918151931671    0.64336025267438   -1.15765158879440
O          -0.68782111048831   -0.62039016964519    1.76881473554696
H           0.14591792839879   -0.95567043155657    1.38115586583591
H          -0.68311802763186    0.35107387572579    1.68267534656735
H          -1.62115715479250   -0.97828574269867    0.66834847376714
N           1.86568708584850    2.30711389576827    1.34373422019665
H           0.85605282320243    2.41954336874367    1.33192584398734
H           2.27826402612194    3.21318430687457    1.16136540935313
H           2.13532472260657    2.02773341425144    2.27857812376381
