    26
        -50.46328765  Gyration_radius:  2.42787446679 Dipole_moment: 7.586
 S          -1.15577213268630   -1.67310976460627    0.64339377808689
O           0.22648769729561   -1.75286677067773    0.13689895684873
O          -1.45952725486599   -2.63198484953370    1.64559354264915
O          -1.39057922508390   -0.26924795064185    1.07931573479457
O          -2.09466480803776   -1.89195861134023   -0.58457690715735
H          -1.83125858314501   -1.23693257465481   -1.26706266341940
H          -0.16139039001564    0.30128235687029    1.66607518554900
O          -1.34117671439883   -0.19608325600685   -2.50688697612452
H          -1.46055678499783   -0.65410726170266   -3.33997568953951
O           0.91929088596926    2.27969997995585   -0.27486705905565
H           1.12647562117516    3.17781028295577   -0.53415792531395
O           2.26682753641531   -1.43670542252396    1.70032133655074
H           3.03778845431138   -1.54258315088039    1.13961615697844
H           1.49952571388613   -1.76590964050762    1.16751831496145
O           1.13460476061846   -0.14028844086182   -1.71843458617707
H           0.89224097818932   -0.79996941089445   -1.02673558337348
H          -0.35512731990340   -0.15916248729906   -2.33693546382837
H           1.24862975891102    0.70444319319094   -1.25846978270414
O          -1.60535368267256    1.77683254757294   -0.58054926660882
H          -1.68871537176912    1.06218439015558    0.08917021093250
H          -0.06933555958175    2.16175593659261   -0.42425806760424
H          -1.73986398314334    1.32985077006112   -1.42711356766542
N           0.78664620858077    0.75140858073235    1.95782499967934
H           0.70860755022116    1.17534662470505    2.87548576320818
H           1.00754227197789    1.45515367201883    1.22644239520932
H           1.49865437275457   -0.02485874266750    1.95236716312289
