    26
        -50.46328765  Gyration_radius:  2.42791802042 Dipole_moment: 7.587
 S           1.36266769374017   -1.01983376624178   -1.28574377082048
O           0.16876317944990   -1.63130786014180   -0.67403347944529
O           1.67560883244689   -1.52796298911698   -2.57414651106874
O           1.16821656323707    0.45590930077149   -1.26446484062847
O           2.55386117906161   -1.29852665671260   -0.31582440417813
H           2.28684920274883   -0.96697265233847    0.56906462355354
H          -0.25266718473958    0.79262805073823   -1.48314586269006
O           1.82589385323549   -0.50393965245648    2.12908891821011
H           2.21453368502119   -1.12439257290354    2.74723725139656
O          -1.35402759255655    1.74674393752439    1.11027636268463
H          -1.70983222920439    2.43445313767135    1.67344842924513
O          -2.16100796171370   -1.48306345028938   -1.79571793959817
H          -1.24683276727747   -1.71572981093954   -1.49397877280490
H          -2.75645995822398   -1.95998461902437   -1.21443462351601
O           1.22643835592742    1.92219513340246    0.93446479065201
H           1.62968286989970    1.31212923542717    1.56675553547732
H           1.33864719753594    1.48088650501587    0.06337713479289
H          -0.35620069449634    1.87968891231002    1.09503410273459
O          -0.70002346330450   -0.93836784524730    1.69912382595476
H          -0.45382882974985   -1.27789840955154    0.80669540413229
H           0.84534783904978   -0.70418132524848    2.09772405801547
H          -1.09919924010871   -0.06744338274369    1.55646341277013
N          -1.31863640766654    1.01650708808187   -1.49824615098035
H          -1.52834994654292    1.68630534696238   -2.22989389412184
H          -1.54686152714611    1.39136062920320   -0.55685245713888
H          -1.81258264865374    0.10079769591164   -1.66227114265203
