    26
        -50.46328766  Gyration_radius:  2.42783638248 Dipole_moment: 7.584
 S          -0.00903024300472    1.33255604011528    1.66524592240953
O           0.08819458419882    1.75213938333941    0.25521832773582
O          -0.71542273433982    2.24575021029275    2.49184193157989
O          -0.57976376067452   -0.04224497747194    1.68292538990667
O           1.45410433043909    1.18436066044729    2.18896055672991
H           1.91876508357632    0.57667667212825    1.57318680766952
H          -1.57670924674428   -0.20145489760404    0.60531572662320
O           2.78309637030724   -0.38160178948429    0.48054539298247
H           3.67764634810894   -0.04133317327615    0.43483369178446
O          -0.36937724285742   -1.95039837920155   -1.47613075837302
H          -0.32874878101104   -2.77389642175333   -1.96289856940948
O          -2.02207382154806    2.13855138926954   -1.19539756313169
H          -1.69537163217443    2.41003369952957   -2.05536898665103
H          -1.24678734965673    2.19859402812994   -0.58186391580044
O           1.32215205611976    0.31264044406695   -1.55360819651063
H           0.84379838415840    0.93185686663883   -0.95350089269430
H           2.33499886948273   -0.13067451882140   -0.37898342237618
H           0.71929128420932   -0.42822348402784   -1.71410209879055
O           0.72153029618204   -2.19202688174207    0.86311307171987
H           1.63161526218436   -1.86835193482686    0.82450681651391
H           0.22729153928979   -1.47771592400815    1.32326043305456
H           0.07325507133456   -2.12301238608215   -0.58851693957140
N          -2.19526215166748   -0.34669811724068   -0.27945390765974
H          -1.68037727094577   -1.01738931816611   -0.88280347212120
H          -2.26859151308500    0.59338102224117   -0.74870358788218
H          -3.10822375189023   -0.70151824249386   -0.01762173773585
