    26
        -50.45260142  Gyration_radius:  2.49727992213 Dipole_moment: 5.352
 S          -0.57184457968639   -0.58821919946637    2.15037057560670
O          -1.40033844985169   -0.08486621770597    1.02873481910177
O          -1.33737006407923   -1.15092818637010    3.20825787961082
O           0.42772342634346   -1.53132995658383    1.58720004838572
O           0.22554313457023    0.63932283797448    2.69363345109015
H           0.71701937285445    1.04478012065516    1.94500374772038
H          -0.38864269252616   -2.32860181854862    0.48974023618178
O           1.69998268367698    1.68838326249603    0.73306499132579
H           2.53873615666828    1.94590855665154    1.11988586663109
O           0.03816380982972   -1.06308884149533   -2.30839409262686
H           0.09201523810551   -1.05846821637428   -3.26427979289541
O           0.12720280736856    3.18731238115123   -0.92418836081402
H           0.75488344709088    2.72822828321635   -0.33632209091926
H          -0.39241182245515    3.76797495224672   -0.36575866691664
O           1.98989471896184   -0.63527334861075   -0.33899412973244
H           1.52041331817499   -1.05977899453514    0.41461186746638
H           1.43652622203264   -0.79211212201339   -1.12022239759143
H           1.87392751284464    0.83407313221019    0.23113827336164
O          -1.30808003238189    0.95470222645470   -1.45296343170342
H          -1.43602124895830    0.70506527526781   -0.51810262501436
H          -0.81505302170049    1.79984908909405   -1.42663937166635
H          -0.46796403550124   -0.22867365192137   -2.04733428742735
N          -1.16783930803336   -2.27217304570640   -0.23647734137028
H          -1.79133418479649   -3.07086791594593   -0.24092154935346
H          -0.75970476047955   -2.05552637788270   -1.17028707176763
H          -1.60542766805733   -1.37569221429613    0.14924347332355
