    26
        -50.44354695  Gyration_radius:  2.42716668623 Dipole_moment: 1.742
 S          -0.46627247643505    0.91811217744259    1.47426071837981
O          -1.12248019812624    0.99500826935711    0.19667026312853
O          -1.17412439855226    0.21268842038468    2.48777566694211
O           0.94584710298902    0.28107234235988    1.28367113453611
O          -0.07751988726623    2.33299181844354    1.92670597674079
H           0.27856813975786    2.73519970445308    1.07493808470149
H           0.86221250591343   -0.69015590127640    1.02207157446528
O           0.77158402999249   -2.15379321479759    0.49294019175967
H           0.20307251179829   -2.66347491607287    1.07273060986178
O           1.10354017213621    0.77495639310100   -1.80160945251385
H           1.37411150169963    0.87299266392764   -2.71660067535654
O           0.60393215788570    3.06542322639377   -0.43936899497711
H           0.81447472193426    2.21150760891860   -0.88058995554331
H          -0.27228214060831    3.29345210646744   -0.76120611742333
O           2.97483051624285   -0.63432846385268   -0.48779203492067
H           1.81554225261398    0.25773480421556   -1.35890517005842
H           2.97310826153053   -0.12425700043200    0.32781224820124
H           2.51258398138624   -1.45668715139680   -0.28349871620559
O          -0.68335251911905   -1.47344085732652   -1.50026312811650
H           0.23492308805107   -1.98613402621268   -0.35239193456091
H          -1.54375542291605   -1.47388227105767   -1.02607271481712
H          -0.42041640427196   -0.54304679900236   -1.57193756837800
N          -2.77965529233897   -1.33434315800041    0.26090282877756
H          -3.75833464801514   -1.27845085831128    0.00548766798760
H          -2.43602699637410   -0.38244804291406    0.37364334087991
H          -2.73411053991636   -1.75669688480956    1.18062614650287
