    26
        -50.46788072  Gyration_radius:  2.39867042318 Dipole_moment: 5.648
 S          -0.94799652139984    1.14161132838424    1.02825394727120
O          -0.25619104308475    1.24786219856425   -0.25166131807433
O          -2.18321579478555    1.87754975361346    1.04497570281942
O          -1.14863027836546   -0.28987811081304    1.35510671675737
O           0.00134572914237    1.71453541800145    2.12537730541308
H           0.87721217897791    1.27851947513357    1.99464058484611
H          -1.53939710424849   -0.85157847356215    0.00452407668499
O           2.37236587600343    0.59195130540975    1.64649771135250
H           3.05351681325946    1.18129384789071    1.97466736040476
O           0.90914769717635   -1.83479534336943   -1.41406102464240
H           1.20402085280328   -2.69074122602462   -1.72751361442149
O          -2.66936513512553    1.37512503155907   -1.50982641436797
H          -1.95635367789042    1.90147506047285   -1.88318427668196
H          -2.67305510717117    1.62951863817181   -0.55743387351647
O           1.01155191049880   -1.80112927870506    1.19551117153356
H           1.70390996745727   -1.21280782531144    1.52277374217475
H           0.17596415995810   -1.31934437257851    1.38316784435828
H           0.99495379918097   -1.85918204967243   -0.41663758332528
O           2.19090343680595    0.67629468101357   -0.95313502316745
H           2.02577236418832   -0.19924355128343   -1.32727471017020
H           1.28858307267815    1.03936142193381   -0.81167080929557
H           2.41320929423280    0.63905750598504    0.64655877613413
N          -1.68861171370332   -1.04433501795399   -1.04306286470028
H          -0.74768124027868   -1.27079455735600   -1.42483244196613
H          -2.06556038181276   -0.11868529658483   -1.40511544633466
H          -2.34639916448285   -1.80164057293450   -1.19664554908470
