    26
        -50.46558806  Gyration_radius:  2.55277603686 Dipole_moment: 5.001
 S          -0.43991099739857    0.15374775948559    0.28803749961743
O           0.90897051324776    0.69158989182789    0.54766718764771
O          -0.86396618357359   -0.69059230114558    1.38868011890887
O          -0.47893805481030   -0.55010093249138   -0.98560877803565
O          -1.36714985987642    1.39275251619361    0.21511673493131
H          -1.98578632057001    1.34642784784387   -0.58000008911876
H           0.02456026945502   -2.06455476689469   -0.56152706534501
O           0.35532462977924   -2.84711476995118   -0.06008329258474
H          -0.34937684471367   -3.04137473077783    0.56472059145778
H           1.53746645229133   -2.15855197135973    0.76778135594848
O          -2.80757949470601    1.48874308831724   -1.90395566421606
H          -3.07581443964573    2.39498804144876   -2.06900661335077
H          -2.05540920965871    1.29581971908525   -2.53346812525759
O          -0.56591921516073    1.03074695918287   -3.15947981412411
H           0.01156911152042    1.70303661584369   -2.75301783678475
H          -0.45163929882584    0.25248324096074   -2.58628917399021
O           0.55619538273597   -1.32784314392967    3.49735666928694
H           0.51758099365997   -0.59416700954692    4.11270112482244
H          -0.10169075392717   -1.11862297896939    2.79012757551289
O           0.77378442217716    2.58282211441881   -1.33946508536170
H           0.22117431159423    3.23592783491939   -0.90566261811448
H           0.93073069337549    1.89327213733913   -0.66699943222501
N           2.09505718546708   -1.45877398704407    1.34499649430641
H           1.76871825076040   -0.50478868200889    0.99094652985239
H           3.09737960419944   -1.58921672255584    1.26515783632478
H           1.74466884260190   -1.51665579019571    2.33127386991892
