    26
        -50.45092867  Gyration_radius:  2.51860158922 Dipole_moment: 2.721
 S           0.58772387741357    1.46043206138982   -0.43607184530915
O           0.24573306480137    1.78266292565883   -1.78540362280808
O           1.17653584665049    0.15030416594041   -0.27434499247332
O          -0.66121855970972    1.55481821190891    0.47543336602872
O           1.49461272748505    2.52706224760898    0.15533156016033
H           1.51826584342748    2.38313076378852    1.17526141505244
H          -1.34006005327065    0.86562172276138    0.21005658713030
O           1.05153101933476   -0.49130177005397    2.31364661712494
H           0.13799022007484   -0.81757031242677    2.40663922884404
H           1.19206032927296   -0.41218814985211    1.35195596879709
O          -2.34622515415028   -0.21872995209076   -0.32629020804799
H          -1.99093154093402   -0.32278260079055   -1.27809681224729
H          -3.22119920720628    0.16668144546615   -0.40751818299349
O          -1.31152987202876   -0.26985745479420   -2.64978651799979
H          -0.79679754171630    0.55312297060461   -2.57819748993917
H          -0.63123919320595   -0.98681519723430   -2.64998990085167
O           1.56929220479850    2.02866167333423    2.62813686928808
H           2.47379535215066    2.06397025147324    2.94831385764584
H           1.30454434496374    1.06170291489218    2.64293667457368
O          -1.45620627068538   -1.56618404410745    1.96210008785193
H          -1.37080447641230   -2.49330603136538    1.73330344532688
H          -1.82769166166803   -1.12139126618726    1.18520675578295
N           0.79959482420337   -1.91014710272061   -2.29447465668566
H           1.49247004633997   -1.85745766198077   -3.03055325593171
H           0.81490787613548   -2.85255806255558   -1.92552176525570
H           1.09484596393264   -1.27788172867133   -1.55207318306566
