    26
        -50.45092861  Gyration_radius:  2.51865496859 Dipole_moment: 2.722
 S          -1.01537563804989    1.01807302497566   -0.77542832798044
O          -0.78907204269977    1.01193072610238   -2.18619247660745
O           0.18198770227470    1.20424240242500    0.01256418941923
O          -1.69686873454635   -0.30032021228044   -0.33152360469019
O          -2.06131875402833    2.05700694590939   -0.40588126132641
H          -2.36085886183504    1.86489925940020    0.56105841793483
H          -1.08640520987557   -1.08003833273726   -0.49154251295170
O          -0.36344615749558    0.46819029114094    2.51971636746032
H          -0.26754912701838   -0.50078320711630    2.48115657627094
H          -0.00294134846094    0.78892290835060    1.67234885517277
O          -2.65154176361542    1.56841553473867    1.99863592425477
H          -2.66500621581886    2.38079144159615    2.51026980399706
H          -1.84210370422167    1.06008756113972    2.30153882562329
O           1.13951013370348   -0.85643793866043   -2.60459688772591
H           1.89302329294625   -0.39953992977926   -2.15702516863137
H           0.46403679208767   -0.16370624746351   -2.71058503187600
O           0.31535248914169   -2.13464024887601    1.94119265992239
H           1.25111404515799   -2.26164562768824    2.10637261466872
H           0.18571417125008   -2.23487345458463    0.98591462917361
O          -0.06504922840521   -2.22749912226880   -0.83230026996728
H          -0.52228811068262   -2.94196618844231   -1.28080835810820
H           0.49085608220087   -1.75268535773124   -1.54541045627834
N           2.80688888546817    0.65307513347464   -1.11645873624498
H           1.98007042584386    0.97131456504832   -0.61329719061082
H           3.18944297936626    1.45203070856826   -1.60633607389659
H           3.49182789730885    0.35515536476463   -0.43338251699432
