    26
        -50.45300065  Gyration_radius:  2.56502951088 Dipole_moment: 9.922
 S          -0.36383817878433    0.38954904161583    0.91541242079844
O           0.91992285486817   -0.27481587814017    0.69084540524946
O          -1.47280449386690   -0.52113090005355    0.95885571538421
O          -0.55634016943319    1.38762251471153   -0.28366113577204
O          -0.28756250450201    1.28520970459769    2.07898086760415
H           0.46192108208769    2.34247858702510    1.61205798017392
H          -0.70156390414468    0.81728591620788   -1.10443949640948
O          -1.40611397846114   -3.22641808040891    0.08500531607017
H          -1.43297021185029   -2.46725633826103    0.68381512425061
H          -0.52742351506413   -3.17634691520766   -0.33274858924659
O          -2.91692078126787   -1.42786314518589   -1.21045277327408
H          -2.53186705029674   -2.30254095095692   -0.98930811130735
H          -2.82091702142643   -0.94307899495396   -0.37742453484987
O          -1.01347071973917   -0.05985968746967   -2.33007598754620
H          -1.40354727256847    0.41622742036226   -3.06565829790903
H          -1.73242962794769   -0.66839870475403   -1.98284521378018
O           1.15974634011900   -2.59485910790619   -0.65755580955824
H           1.06380478083760   -1.71958260533477   -0.23503817319831
H           1.81272575682050   -3.07047245366783   -0.14154200999679
O           2.94621224742330    1.31590603780397    0.46466751806481
H           2.21215753380539    0.64294603741155    0.46400161320569
H           3.60914476414811    0.97531167361399    1.06788253862694
N           1.10621040766319    3.09496452175324    1.06169055230855
H           1.29278118656939    3.93450682409414    1.59954387978223
H           0.60024489052636    3.29899673739309    0.20260696973120
H           1.98289757440578    2.55161875569398    0.82538423161021
