    26
        -50.45677428  Gyration_radius:  2.47301446401 Dipole_moment: 3.904
 S          -0.71467693918885    1.38921983872788   -0.63481154695071
O          -0.95595062014692    1.31875021236349   -2.04455034925191
O           0.68495372722542    1.51530385317267   -0.28880713099777
O          -1.27678771989354    0.12683041667629    0.05955310593062
O          -1.53148427912974    2.49858056541867   -0.00912372489455
H          -1.62814208611850    2.26923755026475    1.00578179620950
H          -0.87627274383153   -0.73460899185044   -0.37000582912913
O          -0.21916324339010   -1.85459067906524   -1.05287256874473
H          -0.48259490398073   -1.72557695948357   -1.99184274108791
H           0.72481941913389   -1.58234239216385   -1.01862633994360
O          -1.68597753224968    1.71983729468359    2.36082984080576
H          -0.71237123196908    1.52014501168161    2.53104393790404
H          -2.11284999950558    0.86582626781168    2.24837862152961
O           2.14124339889265   -0.60308422355598   -0.94407918722250
H           2.58592159063890   -0.42603074658636   -1.77520007751277
H           1.71047912882425    0.23831464109684   -0.67991228986363
O           0.81271304222717    1.09647312779281    2.38714548065997
H           0.93476072876863    0.11883674623853    2.34524986016615
H           0.97341640838400    1.40011358592780    1.47933518876980
O          -0.81813937630337   -0.92932889233034   -3.46901142565441
H          -0.83839425102207   -0.03040183311979   -3.08296819355048
H          -1.63932690854251   -1.03012534547598   -3.95321098851118
N           1.17033871497437   -1.55029835341532    1.84361367387914
H           1.84349364536467   -1.43559199637549    1.09360844512958
H           0.34573072891309   -1.98089827295021    1.44288266095642
H           1.56426131197682   -2.19459042547428    2.51759978136082
