    26
        -50.46547236  Gyration_radius:  2.45884170148 Dipole_moment: 4.613
 S           0.27772822821952    1.12032517644236   -0.71346391462428
O           0.00687323773857   -0.01567521038363   -1.57115460805254
O           1.32180045096772    0.82506615703443    0.26722388641915
O          -0.93226774208575    1.59690737038982   -0.04365259516125
O           0.83037342923108    2.28482901768089   -1.58682799919825
H           0.04333125686384    2.55464637133324   -2.09908224956104
H          -1.73008378378808    0.71264351689461    1.20109489579836
O          -1.66795677348921    2.77279978235333   -2.27003484017691
H          -2.04429846641402    3.64129156509985   -2.11012021522506
H          -1.68410839809018    2.29781073334051   -1.41543421064669
O          -1.87794596651988   -0.01744696945265    1.83969135686617
H          -0.53693316753705   -0.06844757387722    2.43774293446154
H          -1.82617913521974   -0.82275151814636    1.26460515061368
O          -1.07457799037238   -1.81940209588977    0.11611631731681
H          -0.19169944333953   -2.09612709000034    0.42131590248687
H          -0.88473553905882   -1.21088861986454   -0.62060163031907
O           1.53069333391425   -2.22100429320898   -1.99585853957759
H           0.98378508781442   -2.79873305173598   -2.53064404134039
H           1.05242927776061   -1.37115803773081   -1.95116749759915
O           1.62200362814842   -1.85856418183496    0.70063894052191
H           1.70587555586869   -0.92256027207920    0.44651515057246
H           1.81824543831374   -2.32470288570124   -0.12900315893029
N           0.55979649786378   -0.06693436832073    2.59982694054416
H           0.84112376956004    0.36517244503900    3.47279586319500
H           0.92941247796317    0.46019232874084    1.75542300488703
H           0.92731473568820   -1.01728828612369    2.51405515674434
