    26
        -50.45168569  Gyration_radius:  2.4787185846 Dipole_moment: 6.312
 S           0.63877729159604    1.15711211635187    0.03249944437359
O           1.23087607943467   -0.16769703003151   -0.01188316847257
O          -0.26417128274332    1.34736894665379    1.12815537549631
O          -0.06198491658385    1.41489332091717   -1.29908265719677
O           1.74610391761515    2.20290243919448    0.06161822035225
H           2.34517674899487    1.91708052546461   -0.73308506280334
H          -1.00316586732027    0.90074905794068   -1.37050821553377
O           1.14247562616489   -2.45264075355294    1.72361291931731
H           1.43722157894876   -1.66072935698695    1.25821156067470
H           0.45560982720472   -2.16280286425495    2.33461917352143
O          -2.18974464978743    0.14213987775977   -1.33558749399546
H          -2.66516296453975    0.44550284932792   -0.51129705719669
H          -1.89769925864395   -0.76810320155306   -1.16541393881093
O          -3.06669657028119    0.91647332953520    1.01504245045255
H          -2.37621734982920    1.56674868000606    1.18956623649242
H          -2.82823579500365    0.15657342942375    1.57758619011657
O          -1.39609301988130   -0.96663268641756    2.10559415547612
H          -1.32347478508509   -1.46285511375329    1.27333463967866
H          -0.86959009772703   -0.16251229168578    1.97678142832536
O          -0.71591491198871   -1.97590494656106   -0.41143862010515
H          -0.37585665838712   -2.83223365769964   -0.13065425025521
H           0.05171359517625   -1.37270508381304   -0.35912565533318
N           2.94253570094297    1.12876259333965   -1.90947095446392
H           2.66623332317752    0.20858885241680   -1.58345544358373
H           3.93705800170068    1.14185772552034   -2.09351478636659
H           2.44022645671798    1.33806322242802   -2.76210448007711
