    26
        -50.45210467  Gyration_radius:  2.50238737852 Dipole_moment: 5.135
 S          -0.58853725216757   -0.85523303490781   -0.30785300306706
O           0.46772237875269   -0.23861828596931    0.47866454415271
O          -0.27880175782225   -1.01070860551977   -1.69237922150557
O          -1.85999564365456   -0.00939938344058   -0.14498243450483
O          -0.94353797445113   -2.19963325420990    0.30299314485960
H          -1.17292419445862   -2.10677967860833    1.30343991204035
H          -1.87440259417005    0.65554978484719   -0.94475868074759
O           2.03117598386411    0.09470144572427   -2.74995671933296
H           2.64325246132109   -0.26118052058348   -2.08353389998351
H           1.24275671355724   -0.46102518819475   -2.67158843890229
O          -1.58537853526292    1.51178739109916   -2.11008028654698
H          -1.42205356210698    0.88944042326483   -2.82560695931947
H          -0.68299149968600    1.85196538840315   -1.83947745666525
O           0.82460356935224    1.90668270204111   -1.21935244568309
H           1.36595160563554    1.43517797207468   -1.89815122511490
H           0.78963868255967    1.29312089121484   -0.47245555388833
O          -1.38583205058843   -1.88547090188872    2.77035415588381
H          -0.61387806811459   -2.21481584930177    3.23667404329300
H          -1.36922715564693   -0.88272310705825    2.84816983735665
O           3.05137616548432   -0.70860242151343   -0.31005657690461
H           2.14609941732519   -0.62882167366920    0.03397475195758
H           3.57830748111463   -0.05290782877778    0.15105389880609
N          -1.14048015158930    0.73020688258894    2.65392992187721
H          -1.96361806460835    1.09389665921810    2.18993217078310
H          -0.41214188783283    0.65256255017372    1.94818707161807
H          -0.84708404680713    1.40082764297080    3.35285944945465
