    26
        -50.46558771  Gyration_radius:  2.55305628654 Dipole_moment: 5.012
 S          -0.25334037971523   -0.20962458854787   -0.44361443352373
O           0.21336386406626    0.19879894374803   -1.75478086618733
O          -0.77054027898746    0.95515415846108    0.29964608325133
O           0.78493347296557   -0.88845087279899    0.31825769660415
O          -1.46565364776109   -1.15933961907622   -0.61179920418761
H          -1.22736267053764   -2.11028150193685   -0.37513240560763
H           2.13616480387065   -0.03911745915617   -0.10328870575334
O          -0.09982097009920   -2.41320931319303    2.34956739461695
H           0.48322021773032   -1.89048911372941    1.77152616872665
H          -0.82965646618461   -1.80065523910397    2.55637659259492
O          -1.02965186052590   -3.55410967041904    0.19454903067927
H          -0.61934371839703   -3.28633130027683    1.06588239745533
H          -1.86413110146398   -3.97822854731056    0.40474857397726
O           0.29363624426173    2.64688796203584   -2.68869984531259
H          -0.58543808790492    2.87702786646604   -2.99338165472840
H           0.26160087467291    1.68062515445906   -2.48419296441559
O          -2.04325569086236   -0.48975118355725    2.15511884770486
H          -2.82217182782228   -0.76818294834951    1.66948698579825
H          -1.56944147449864    0.11517827206176    1.55338402863796
O           2.75832517845817    0.62007628238399   -0.49288051268184
H           1.92313341228759    1.96082542798288   -0.24435130041158
H           2.73094445378114    0.44073644704214   -1.43725261110243
N           1.11710913819392    2.65257017837394   -0.17051234069190
H           0.87019527595136    2.95084394964281   -1.14452181485963
H           1.31731613475059    3.42910231173751    0.44990213206543
H           0.28986509377682    2.05994441306432    0.15596271735655
