    26
        -50.45317241  Gyration_radius:  2.50928233932 Dipole_moment: 4.925
 S          -0.20282754453716   -0.92280024756476   -0.48554091339555
O           0.48007716196365    0.35901230964169   -0.47053545464372
O          -1.57703488780951   -0.84576733853744   -0.86381506501281
O          -0.07659900304280   -1.54980172075093    0.91674818089518
O           0.55434258774870   -1.89355982497685   -1.37243532575367
H           1.38256042920965   -2.23059029856404   -0.84401680913872
H          -0.91824239805724   -1.23934153727265    1.45212694155021
O          -0.36873077836525    2.24961394985225   -2.27785304379848
H           0.00567321818970    1.54488262829762   -1.72420766176777
H           0.06329281187066    3.06466467831117   -2.01504122039130
O           2.44317674971318   -2.60167663572501    0.12084897362916
H           1.94178823830785   -2.93382551029084    0.87100675983835
H           2.79295228955795   -1.69962167617196    0.39828602440337
O          -2.14394815284755   -0.62406625342758    1.96113761697049
H          -1.92526332855112    0.34125631707793    1.79205932793757
H          -2.81666875269322   -0.85254011491676    1.31193356480822
O          -2.80881934252036    1.62244162688452   -1.15307446468755
H          -2.65027718840436    0.66979787994034   -1.21595280805458
H          -2.14934592718797    2.01502027142908   -1.74991603105091
O          -1.37245025069850    1.68784922518108    1.08368696670633
H          -0.57646396498394    1.38603117307102    0.62389970422388
H          -2.02975062290347    1.84242624731369    0.36174917925835
N           3.00810993968791   -0.11640512839950    0.79003010712465
H           2.15784031513427    0.24085758537087    0.35636466287812
H           3.79839841617707    0.34932223897956    0.36274942025981
H           2.98821000490533    0.13682016499797    1.76976135758434
