    26
        -50.46314149  Gyration_radius:  2.45161026045 Dipole_moment: 6.125
 S           0.99481348550034   -0.33122340033410   -0.73646201878815
O           0.94695762105531   -1.77567650632505   -0.74396509119400
O           1.14875924104456    0.15698139817818    0.65679539616769
O          -0.19983337522986    0.25751412011023   -1.33319839772099
O           2.23258441335907    0.13130410593012   -1.52425414314407
H           2.35744033213338    1.09163801454380   -1.25448102456294
H          -1.64542280429650   -0.43666069599882   -0.84256911223168
O           2.32113681002096    2.48249639436163   -0.50539586096581
H           2.37911630355361    2.14914666838931    0.39441749397938
H           1.38178955158448    2.78810806904452   -0.62448878179616
O          -1.15448116785830   -3.25636263204666   -1.34000401844266
H          -0.30840180745186   -2.79024354154171   -1.15467908037779
H          -1.11764032532849   -3.50634190234924   -2.26431088705035
O          -0.42625710677860    1.86254634125364    1.98369971633981
H           0.11354465588513    2.40303927538646    2.56255215267254
H           0.18369649262559    1.26836767260626    1.50212585667408
O          -2.26574834173237   -1.04436164399501   -0.37611165799902
H          -1.47927482241258   -1.25754263846291    0.82973888027561
H          -2.13714679989844   -1.91060657071787   -0.82187696331856
O          -0.28388788138963    2.83658364293240   -0.64794260240487
H          -0.38771060089197    1.95662663341332   -1.05814134849098
H          -0.62406394697697    2.73175596606763    0.25393018529329
N          -0.70130405925321   -1.42712632085244    1.61240928226500
H          -1.03307197513590   -1.15263073785187    2.53269510898313
H           0.12260108315446   -0.82403258763095    1.31255967379939
H          -0.41819497533797   -2.40329912415399    1.58695725240584
