    26
        -50.46931069  Gyration_radius:  2.42123172847 Dipole_moment: 6.635
 S           0.82590760518114    1.12491727388981    0.64324979234858
O          -0.25665041477874    1.26155188121019   -0.34603948564869
O           2.12264533531946    1.20884251556724    0.02752288821524
O           0.63665276340661   -0.10346647876228    1.41885828141841
O           0.66487722827708    2.31381787359422    1.63499573947520
H          -0.23465816671232    2.16482254284941    1.99145404379023
H          -0.26355447588739   -1.13905505003498    0.77990230611133
O          -1.90325877257091    1.84268661070476    2.22622006762930
H          -2.25794891073445    1.22587573853405    1.56411517136130
H          -2.37751571235651    2.67014898123176    2.11650249308737
O           0.99146610921859    0.47343568876723   -2.55907448386311
H           1.89656719902662    0.73821214470706   -2.37273066306041
H           0.47344002182245    0.85939115643019   -1.82670179935251
O           0.81757227437766   -2.06362517896873   -1.75951494432542
H           1.62630889797608   -2.00535735108047   -1.20292052036508
H           0.81622565817011   -1.20816391016461   -2.24860915375180
O           2.72184444891792   -1.39304857472843    0.00630978979975
H           2.45002540387477   -1.58416256483801    0.90728896113109
H           2.66170008725282   -0.41865989972257   -0.05520647917257
O          -2.60830649446596    0.32793341024115   -0.05578199003258
H          -1.70447063876835    0.72667514282079   -0.21552304658681
H          -3.16346014552829    0.64518804408715   -0.77012930086503
N          -0.86826137326326   -1.78867628827200    0.17678168908614
H          -0.26070446736336   -1.97150174472697   -0.71038898111801
H          -1.72522366562611   -1.25813722256412   -0.03845021035498
H          -1.08121979481784   -2.64964474074053    0.66786986503166
