    26
        -50.46307780  Gyration_radius:  2.44582866636 Dipole_moment: 5.146
 S           0.57255204519109   -0.33616730209039    1.50451695016995
O           0.80938351013879   -1.37204282362148    0.49478891031154
O          -0.48743864528926   -0.67711886291588    2.41313117364170
O           0.13323319817086    0.94450499801454    0.68244829539947
O           1.81489138709664    0.09466970933393    2.13442493717652
H           2.44109347017919    0.90888993199598    1.10884085061043
H          -0.71882177583771    0.71996750915533    0.22049590723542
O          -2.98504227784523    0.05116699700263    1.92699596800004
H          -3.50483336227232   -0.72917919278747    2.12900123582127
H          -2.07151131985241   -0.16272094783152    2.22175499452562
O          -2.05713319957830    0.21841101347670   -0.54344952342946
H          -1.92785459756159   -0.75009205947876   -0.64476099582529
H          -2.60029322244565    0.30180884659433    0.27405935106031
O           1.89294240647180   -0.15719253480533   -1.55446033390674
H           1.12447334396963    0.26971545263776   -1.98752599833541
H           1.51347739640262   -0.74625206597143   -0.85871305875324
O          -1.38879404256358   -2.36405385727718   -0.52085850737031
H          -1.11274729503683   -2.98679451259344   -1.19494749764831
H          -0.56966521938065   -2.10652076598233   -0.03741660471095
O          -0.35318377099801    0.99037821551309   -2.57308377469054
H          -0.73671431616363    0.66617248048120   -3.38962407151554
H          -1.03126206343213    0.87871749396801   -1.88598710502020
N           2.76917380961947    1.48151802713850    0.23217146893227
H           3.76440410008268    1.67735012256740    0.25927426913873
H           2.22148229501881    2.33679904289479    0.20271773694912
H           2.48818813592025    0.84806508458506   -0.61379458776671
