    26
        -50.46307779  Gyration_radius:  2.44583947857 Dipole_moment: 5.145
 S          -0.04683034427349    1.63667808543481   -0.15383894515915
O           0.80108145751606    1.13002334370617    0.92923343740587
O          -1.28976164047638    2.18016416355447    0.32067444072169
O          -0.36528684746708    0.37080995844988   -1.05113524788134
O           0.69979792043744    2.49780742168465   -1.06317688871033
H           1.50731251942316    1.55875803891404   -1.82011793990208
H          -0.87996136626789   -0.26763500374872   -0.48780956088069
O           2.35335952657260   -0.68115957420614   -0.14752549177329
H           1.85338986241177   -0.01750221871257    0.38598335613106
H           1.76279670098561   -1.45961903090485   -0.22215156098330
O          -0.51225275867851   -0.23710133086554    2.73308555573015
H          -0.04268763155314    0.39918797232518    2.14517733019499
H           0.14351270712447   -0.55469433184965    3.35558356089496
O           0.54587675954217   -2.70677214405706   -0.31954389543670
H          -0.31566843304431   -2.29686671205210   -0.13510417188904
H           0.61437036758803   -3.46877529666246    0.25800897536904
O          -3.45186889429100    0.66653349101598    0.51660991210829
H          -3.83057798422228    0.89964458013651    1.36643255333376
H          -2.72070353382129    1.30846206903424    0.37387024467071
O          -1.64081388971563   -1.25994412254878    0.54298020286466
H          -2.47840076319157   -0.74549909032396    0.47880901764625
H          -1.27935217349219   -1.01605985958268    1.42322337732020
N           2.04038805606860    0.72131842346751   -2.28771273555312
H           2.27700967709172    0.06105879171637   -1.44872442531217
H           2.86823861454394    1.03114127466857   -2.78596129739867
H           1.38703209118125    0.25004112141026   -2.90686979351101
