    26
        -50.47327815  Gyration_radius:  2.37194148254 Dipole_moment: 7.414
 S          -1.28191536793212    0.51432336546635    0.59223894974901
O           0.16780709397196    0.68872206133333    0.82757817457793
O          -1.79583499840292   -0.57204102786170    1.41050840324674
O          -1.52881671726105    0.28692115539217   -0.82478160628577
O          -1.97541332066031    1.81268962690284    1.03559350348302
H          -1.37670409646387    2.53835823623088    0.68360161546409
H          -0.80708614667076   -1.07040092380634   -1.58209202460800
O           1.52368106909631   -1.23337274073863    2.00821273952845
H           1.05257718868604   -0.45642067538598    1.62186465174296
H           1.48488481157163   -1.11508748533181    2.95849404607626
O           1.79128327925015    0.07095512731201   -1.16378667108388
H           1.19042056188335    0.34972141939198   -0.43501195494445
H           2.62652988901109   -0.14998421433200   -0.74853364780676
O          -0.13186812047727   -1.76882500323208   -1.72469667271980
H          -0.23022433055893   -2.43036319372978   -0.32540180449476
H           0.70405503414202   -1.26744505183534   -1.76242435367104
O          -0.05966763467088    2.03907529471367   -2.19630650224272
H          -0.72503268410606    1.41102241664131   -1.85179609887143
H           0.76176744843922    1.53609310345340   -2.24047492098832
O          -0.14987499270407    3.35052133052701    0.10095345573708
H          -0.11692621068639    3.06893653991508   -0.84722607312826
H           0.52996216596438    2.83149022566916    0.54349146270312
N          -0.37466989883015   -2.61634602361098    0.72475628698094
H          -1.08865946753617   -1.88488889246373    1.04141962538545
H           0.49649742722402   -2.37090209514784    1.24280138076085
H          -0.68677196221983   -3.56275255542258    0.91101801532515
