    26
        -50.44909982  Gyration_radius:  2.47720718246 Dipole_moment: 2.200
 S          -0.17503088614827   -1.03110275416509    1.45853601902824
O           0.13821754727513   -2.38297193846404    1.75807063678031
O          -0.69238596994259   -0.78122054849186    0.13142749964096
O           1.07880474455538   -0.16623230378083    1.67961211436412
O          -1.19774788228585   -0.50027984486596    2.47985172965844
H          -1.57906682301126    0.37018664271763    2.13099517408673
H           1.14969844999672    0.63530790716788    1.05198808939861
O          -0.59320410570429    1.03214823206261   -1.87795453622397
H          -0.55569504996096    0.31925858565555   -1.21487029869624
H          -0.27428289182590    1.81388677531464   -1.41759424387928
O          -3.04377112906312    0.40872251600588   -0.69740640920040
H          -2.54755340247235    0.81463552950574   -1.42534523672763
H          -2.51939449408857   -0.37117204996737   -0.46493389223904
O           1.46868832774661    1.75804462760091    0.07490791150201
H           1.79173721568213    1.19642278219462   -0.70330838736722
H           2.23716799924596    2.22001439565328    0.41455960410670
O          -2.23894548638655    1.61928182370287    1.49507517973518
H          -2.60128249459620    1.25241122473876    0.64192568634161
H          -2.99796644648390    1.87731386704606    2.02252192165563
O           2.10331751728024    0.18267391020169   -1.86218907263052
H           1.27442762514692    0.26870761035591   -2.35300801986041
H           2.08048193512057   -0.71294899261443   -1.43608055286821
N           1.94410078938722   -2.20910702743527   -0.60719389059524
H           1.26085890346617   -2.17403578178899    0.14344683214014
H           2.82655570513925   -2.48382652569127   -0.19163013614778
H           1.66227030195037   -2.95611865269724   -1.23140371199668
