    26
        -50.46785464  Gyration_radius:  2.43746123501 Dipole_moment: 7.053
 S           0.83805769252812    0.51879079415057    1.53008814868465
O           2.26079614572922    0.65908463502816    1.58126892316340
O           0.38070834970358   -0.77093196318039    1.02154375456386
O           0.17495940661011    1.60402613270569    0.79083650439159
O           0.28808626674806    0.60820075002510    3.00960117472147
H          -0.63543156722392    0.37068213308272    2.91271353484857
H          -0.08118189907088    1.45722589036508   -0.91040680681730
O           3.60485374821678    0.39289577553888   -0.72067925995876
H           3.90046564196508    1.27803888978468   -0.93901593151130
H           3.22413658155286    0.45319298969975    0.17874347373699
O          -0.31370733317499    1.05789657091354   -1.77439265775920
H           0.36409351561447    0.34707217204914   -1.89297771396819
H          -1.52317035786397    0.24615380370263   -1.37521614169663
O           1.37332803279916   -0.94520328819551   -1.45813455466657
H           2.28196870443666   -0.59436358584583   -1.44515730283599
H           1.11086170753700   -0.94080487149420   -0.51635410548189
O          -0.86981028378031   -2.59820170628760   -0.48593712371822
H          -0.18213225838418   -2.62176351575747   -1.16165100253042
H          -0.44149781306843   -2.16675759051637    0.27581854183786
O          -2.15889894016564    0.89745435434722    1.50397156852701
H          -1.26419471357014    1.22908683590478    1.20659244726646
H          -2.66116213168472    1.67588748000705    1.75337299757508
N          -2.27478391834757   -0.38836155700312   -0.90281917909761
H          -3.13497339403033   -0.43127364350582   -1.43704918096712
H          -2.43017090110308    0.00723137498955    0.04570265933076
H          -1.83120028205020   -1.34525886051520   -0.79046273764735
