    26
        -50.44746951  Gyration_radius:  2.53132544747 Dipole_moment: 2.854
 S           0.68673782448415    0.12547912973525    0.93603719850820
O           1.85458823465154    0.03911742811384    0.10935497897970
O           0.46815698646561   -1.04821128609501    1.75506779088284
O          -0.56065588106043    0.37334728915636    0.08513644421986
O           0.75933504260910    1.36945252846774    1.80821173050706
H          -0.19577920703350    1.56742102633702    2.13041410670926
H          -0.57568535479817   -0.27749792351561   -0.77248203774128
O          -1.83070296594205   -0.90297396922312    3.07591299750594
H          -1.00388752217109   -1.09616575423161    2.58835460609538
H          -1.69706257896696   -1.21542048420559    3.97284530376723
O           1.79800974257261    0.22167585323793   -2.55721836608445
H           1.93306946813241    0.27344731720785   -1.59055731226573
H           2.66037689458725    0.08396995883962   -2.95193020799834
O           1.08775414383078   -2.70439606020221   -0.27350253676249
H           0.83436221512010   -2.31023680104778    0.57852521633362
H           2.00431011106012   -2.44998284297393   -0.40685027752534
O          -1.67214267750419    1.64754591281351    2.43087765671029
H          -2.09876027728625    1.72024886117532    1.57221009964847
H          -1.87910877785822    0.73831248746707    2.76315117569384
O          -0.39467636098954   -1.16276199553185   -1.84956692069312
H           0.05820598523395   -1.91615339999739   -1.40158176691864
H           0.29762727062479   -0.70743917873987   -2.37205796907810
N          -0.67187794552640    2.18134953630530   -2.47312193843989
H          -1.35957255489236    1.58604491374368   -2.91950230732446
H          -0.74279983780584    2.01798625934967   -1.47597098539626
H           0.24017803245559    1.84584118380170   -2.76175665934439
