    26
        -50.44746951  Gyration_radius:  2.53124143773 Dipole_moment: 2.855
 S          -0.37311679213618    1.04559135124773   -0.36355519611485
O          -0.94506880034208    1.30624520014581    0.92472564126689
O          -1.35734140318209    0.78581073910381   -1.39307300705726
O           0.59503725992187   -0.13747061561476   -0.29583572815271
O           0.52627637829187    2.20108598154698   -0.77533194048541
H           1.14801399220613    1.85014102764567   -1.51388877152981
H           0.16535771179341   -0.95404011133696    0.25890582656987
O          -0.53541336456764   -1.88154440977627    1.04987210910723
H          -1.46529222926464   -1.70119888211158    0.77389353644542
H          -0.44279421564257   -1.49524724173497    1.94528514677072
O          -2.81273502888507   -0.77187502521010    0.24952172879357
H          -2.45958455096731   -0.26209409340494   -0.49940174388286
H          -3.05709047942385   -0.11681024386704    0.90812730381745
O          -0.21165826855322    0.08691019319142   -3.68422701249320
H          -0.74099478398642    0.26189711859534   -2.87934131425780
H          -0.66212721008276    0.52767656232275   -4.40723586566014
O          -0.41408906556117   -0.15025241941570    3.10256496387125
H          -0.56648517885394    0.51146360275331    2.39949485388868
H          -0.92624132505415    0.12867076697036    3.86305300764862
O           1.94396299558030    1.08472035407879   -2.54207255472924
H           2.33836161030189    0.35261741965597   -2.05928987200947
H           1.24049087796427    0.68771298494555   -3.11425844233051
N           2.51267656659615   -0.76749130055196    2.10247091800364
H           1.79319469247192   -0.49446207559576    2.76245267080345
H           2.42507932176982   -1.76798886211842    1.96857449978809
H           2.28158131963254   -0.33006800142433    1.21856923193735
