    26
        -50.45372758  Gyration_radius:  2.45901125661 Dipole_moment: 4.833
 S           1.08106413464494    0.63789037453949    1.13336857841965
O           1.11083547194710   -0.25550643386180    2.24547882493943
O          -0.08613494821573    1.48832568319722    1.05939740019340
O           1.13581286165349   -0.18066674600832   -0.17991099687164
O           2.34458958536865    1.48807318319161    1.08875534354716
H           2.38469644661962    1.90502503302003    0.15031000277707
H           1.22318009706628   -1.21726619758045    0.11380992808212
O          -2.25372663434988    0.02438729970633    0.64060068808137
H          -3.01754334584361    0.49845293849966    0.97505989654048
H          -1.47265912206225    0.56845312444239    0.87876616859428
O          -1.07695962219461    0.11004030985939   -1.90291403783071
H          -1.71993806310915    0.01838788260959   -1.18385820085145
H          -0.23286883950547   -0.15632317805427   -1.51609266786541
O          -0.30781328646024    2.67540526257332   -1.37548871863370
H          -0.38210948615459    2.48990080118119   -0.42527352927649
H          -0.68033564627535    1.88410790991517   -1.81287020041581
O           2.27097025640713    2.31328140335831   -1.29652506291652
H           2.39909777123935    1.52573885242539   -1.83140023505521
H           1.31481278482715    2.58391968284411   -1.42155061724955
O           1.18499465223151   -2.45517711423900    0.73705453567990
H           0.20543046414570   -2.69715423943927    0.63508495583110
H           1.28041859825068   -2.09043039687471    1.63095939524494
N          -1.40617872417921   -2.79864297924216    0.44999518630866
H          -1.87161986392806   -3.42303174591526    1.09620939809885
H          -1.65742716605907   -3.07715193934407   -0.49038557656515
H          -1.77058836606747   -1.86003877074007    0.60141952112150
