    26
        -50.45372765  Gyration_radius:  2.45924096696 Dipole_moment: 4.831
 S           1.10830562445251   -0.73809337535808   -1.04308115127302
O           1.71878437772942   -0.56909482714983    0.25675711187631
O           1.48572675210695    0.22987586990035   -2.02095777236785
O          -0.42581913591697   -0.68565222808178   -0.83905617411810
O           1.36233064733305   -2.15077585165969   -1.55446507157324
H           0.84103684584042   -2.78490997595266   -0.93614973041688
H          -0.79752979152976    0.05389091812935   -1.53374328544580
O           0.47721238457518   -2.07146258476516    2.15132241031982
H          -0.27023350934872   -1.45084316400001    2.26307481853916
H           1.14633033111078   -1.56583714480336    1.66199071970225
O           0.88051937535345    1.68348413674405    1.37048410261212
H           1.53918766050685    1.98172149260080    2.00066041644790
H           1.26226597571657    0.89146603456795    0.93497571997743
O          -1.29887767465460   -0.03566547507759    1.76250398122852
H          -1.27384329691447   -0.27450727266159    0.82693722871141
H          -0.67287214088065    0.69891240945360    1.84874519968747
O          -1.00015145200107    1.12656503091220   -2.38946828302899
H          -0.08689417478465    1.13265985005164   -2.71685682423896
H          -1.06796175389489    1.89454441462645   -1.73073407640076
O          -0.07022185408968   -3.49033820237306    0.03583854143699
H          -0.97190393223922   -3.23383832663606   -0.17344991405828
H           0.13419918782367   -3.08937876401036    0.93053021165180
N          -1.02348552116638    2.95335606427311   -0.49778161351022
H          -0.30687178662022    2.61611689214638    0.14207564355372
H          -1.90039996979192    2.97501715324888    0.00774662774142
H          -0.78883316881285    3.90278690583336   -0.75789883711258
