    26
        -50.45721268  Gyration_radius:  2.48767948452 Dipole_moment: 5.897
 S          -1.08149947011524   -1.01943775756800   -1.26615855413020
O          -0.35550438069740    0.26427829838397   -1.18842560020133
O          -2.49639661580959   -0.83407680731038   -1.28903627307730
O          -0.64639936707161   -1.81938405118628    0.01144884935170
O          -0.52526576354393   -1.83692740048212   -2.35723047587373
H           0.70267689496637   -2.18466396396833   -1.86503463397130
H          -0.90813904105648   -1.27701848874236    0.84335554434432
O           1.20205929283302    0.93858383906036    1.93329486061615
H           1.65632196884021    0.65455621987744    1.12903487002999
H           0.83144599669051    1.81998971981493    1.73423913012456
O          -2.17630359112168    1.53042808161109    0.20628230373068
H          -1.49408423466030    1.15600980454525   -0.39497835313746
H          -2.99976447461038    1.17282144559515   -0.13852243097583
O           2.13255962516819    0.17751755768745   -0.67536468042643
H           1.15001563456729    0.27399781625604   -0.86848391028654
H           2.56431234691656    0.86755359654000   -1.18212737250057
O          -1.15704720486997   -0.29982792886331    1.96089268696996
H          -1.67230799611118    0.39876567324707    1.51354941887564
H          -0.26019652964253    0.09136298849271    2.10393464448537
O          -0.24108028860867    3.19166221990581    1.33072575536676
H          -0.63125764239211    3.61150668874022    2.09928640794993
H          -0.96858408127578    2.75736177158472    0.85848803758616
N           1.66228159431958   -2.38849649696845   -1.27378141472946
H           1.33000383089783   -2.80262789931556   -0.40403947647810
H           2.06979004666031   -1.44752211571668   -1.06087048615828
H           2.31236343954653   -2.99641282114213   -1.76047882746897
