    26
        -50.47314777  Gyration_radius:  2.38308871651 Dipole_moment: 3.677
 S           1.30965425791299   -0.63667815894404    0.69182520768060
O           0.94243247702665    0.68903768839149    0.17003555184668
O           2.62636338000921   -1.04262877567188    0.28085930597654
O           0.26263336033460   -1.63260187612754    0.03290023877113
O           1.03629282582551   -0.73194774782664    2.11353813447347
H          -0.33371594792397   -0.15277116491762    2.38082705059443
H           0.37834945983282   -1.51651745810129   -0.94387558426044
O          -0.69850046140535    2.55145361506020    1.13333757485436
H           0.08012946510976    2.04338830840562    0.82444199945659
H          -1.24909601310113    2.66401118976305    0.35290624629573
O          -1.25194676611684    0.69999407453938   -1.30936968161079
H          -0.41768354195523    0.72905863771836   -0.79007447306687
H          -1.02048052167433    0.21379332787667   -2.10673359780943
O           2.69837732672148    0.27550973961566   -1.96721999396129
H           2.86759213130843   -0.24314333549856   -1.14569418644569
H           2.40215019237302    1.13250076747411   -1.64833853698460
O           0.59338830233720   -1.15123385648134   -2.52075688264285
H           1.39813332284208   -0.56295692637583   -2.43484725800636
H           0.88296280475241   -1.91985637324879   -3.01566690125873
O          -2.43149519222598   -0.99582669731432    0.38869407254436
H          -1.74152659219702   -1.66645236070219    0.29997904688669
H          -2.21085445982811   -0.33363633475136   -0.30721950712397
N          -1.31277021263922    0.29102842504903    2.40742577595935
H          -1.19923743394166    1.27940399068128    2.06662487294474
H          -1.70433536243377    0.25528269954025    3.34203581404812
H          -1.90681679096450   -0.23821140812030    1.70436571084959
