    26
        -50.44426273  Gyration_radius:  2.54742220026 Dipole_moment: 2.362
 S          -0.18722835044177   -1.27555564145897   -0.94388324730498
O           0.60546038364849   -0.43113595401600   -1.80435711906380
O          -1.30361666428596   -1.89375605783663   -1.59812837394414
O          -0.72149495385791   -0.39009920265608    0.23514838355017
O           0.68746620362548   -2.28234036642966   -0.25208237323083
H           0.48474329942129   -2.40891017525224    0.80785569926385
H          -1.00124964650604    0.46263072624413   -0.17671579893540
O           0.40366561735410   -2.53136821791799    2.17665487398491
H           0.63572702485642   -1.54967659698687    2.45573991005346
H           1.15485581158654   -3.07543353264862    2.42706050985189
O          -3.00761138401319   -0.04228988624096   -2.47325902669253
H          -3.21139417012639   -0.22580877797649   -3.39207417645646
H          -2.50293880084292   -0.81655638341393   -2.14806773115114
O           2.11692240168210    0.70024926700959    0.20808530522692
H           1.76288100263021    0.23428607370894   -0.56213035850789
H           1.69073010758241    1.57573351093807    0.20870815251969
O          -1.13573856638914    1.56203989033426   -1.47021105580100
H          -0.41388828576685    1.07147272795288   -1.90124433022380
H          -1.95992644276759    1.20845879444954   -1.86819019512475
O           0.59892262146826    3.03264399689376    0.10589680522814
H          -0.14722025659672    2.68003023423180   -0.40234070068141
H           0.95051976104639    3.76857136552414   -0.39804809150762
N           1.06359501117184   -0.10957932524732    2.70112249812718
H           1.55079675977224    0.14617647781241    1.83357948584755
H           1.65783925393268    0.13052582170698    3.48422131423288
H           0.22818225245081    0.45969121142519    2.74665966101234
