    26
        -50.45434007  Gyration_radius:  2.48780545632 Dipole_moment: 3.055
 S          -1.84761539035641    0.39687117641726    0.42709757915668
O          -1.08296590554002   -0.34751809044534   -0.56690297220490
O          -2.50124390297551    1.54890747845907   -0.09288965055511
O          -0.87574000747542    0.78377135440519    1.56655724729662
O          -2.81768531243794   -0.54573114774193    1.11452888894264
H          -2.32599985998250   -1.45913660543283    1.18356619001223
H          -0.07381096533215    1.30162910527132    1.16927707377902
O           1.07419795011793    1.84695312665984    0.37817726618639
H           0.65152798056230    2.14211924379591   -0.45018560483032
H           1.51250547066628    0.99206811858077    0.14352513529075
O          -0.41227137350143    1.87161613709083   -1.92090389662406
H          -1.19124623846286    2.43018404548730   -1.84367886414278
H          -0.71316030170061    0.99877585574713   -1.60371331654118
O           1.95437569610268    0.71863872914651   -2.89830179969496
H           2.61313931695934    1.38878261434380   -3.08674754880414
H           1.10935217285155    1.18003177736932   -2.79259076772938
O          -1.42630563265196   -2.63207607273015    1.08472233665941
H          -0.58150228149194   -2.35321591924793    1.56225785442746
H          -1.21183335216164   -2.61353310365933    0.14710141328208
O           1.63307290422768   -0.59035246990369   -0.51078741656070
H           0.66763841877419   -0.68761236493405   -0.58880359796038
H           1.93205020646284   -0.34694141014217   -1.40534976925001
N           0.77492099123302   -1.66378080346138    2.16731676938688
H           0.43350084212648   -0.76731135255183    2.49571920935503
H           1.41845654818551   -1.48396430230802    1.40343461297508
H           1.28664204581710   -2.10917514019846    2.91757363811766
