    26
        -50.45416937  Gyration_radius:  2.49036257333 Dipole_moment: 4.071
 S           0.10459747525655    0.07183807242247    1.24601350220536
O          -0.99305681301987    0.40933099828254    0.36159195406052
O           1.10769072860113    1.08029350865511    1.36435031730124
O           0.75169851498060   -1.23607641146934    0.72317173526608
O          -0.44483396360343   -0.32807447806358    2.59979626934739
H          -1.28167802067122   -0.91393983324304    2.39952998835282
H           1.38840791517366   -0.95204972246097   -0.03593821554568
O          -1.53288914805843   -1.36855046976186   -1.60986971532168
H          -1.43189027010480   -0.68426646344165   -0.92584343926072
H          -1.05017190008357   -1.05008220660547   -2.37527380314243
O           0.32954411194090    1.39284263952425   -1.82063010367668
H          -0.30616432656561    1.17358261306007   -1.12099242873124
H           0.73165796066256    2.24184785436765   -1.52506392140836
O          -1.12498441663376   -3.30366957513194    0.24493381287640
H          -1.33961445473988   -2.83507962229159   -0.58382286744895
H          -0.22667085869352   -3.03165144145702    0.46339719860902
O          -2.41084917594925   -1.68279935312722    1.84830664835541
H          -2.00714969324435   -2.42456349509146    1.31191426079212
H          -2.82886387202212   -1.09297391756620    1.21345020688126
O           2.19404029782533   -0.25020022184300   -1.07823696991885
H           1.52104499841825    0.35432169211458   -1.51453773416397
H           2.77883050953663    0.32772756024765   -0.58121744752662
N           1.44490125106185    3.40288365518651   -0.38861952310230
H           0.82952368842032    4.17540962216498   -0.16572072356208
H           2.38609308681692    3.77207213770307   -0.44495638710911
H           1.41078639462237    2.75182683782312    0.39426737599624
