    26
        -50.46309542  Gyration_radius:  2.39416396154 Dipole_moment: 2.608
 S          -0.75952441036190    1.35931635157809    0.13900188142281
O          -0.32291818610206    2.21842927201030   -0.93870814247966
O           0.38357041939192    0.93603955958751    0.97057140771794
O          -1.46548550052491    0.17297791069357   -0.34075245706545
O          -1.71553749098232    2.16291213126254    1.05017273443017
H          -2.07684147027852    1.45408582470185    1.65584570042339
H          -0.79974042606657   -0.77295873507651   -1.45706591717626
O           2.50951980708958    0.30694612663302   -0.43940477764543
H           2.29334464133162    0.63852878241241   -1.32940588108970
H           1.82048264475197    0.69720751112399    0.15089607669649
O          -0.18386971844001   -1.26084157433686   -2.06722026501489
H           0.76289160931711   -1.80309134278854   -1.16724246887267
H           0.28811846977844   -0.55388700145816   -2.54712706172924
O           1.51703227010674   -1.99495704325456   -0.41507360816990
H           2.07660555535799   -1.10032697224149   -0.43416971415122
H           1.03510651926686   -1.95817736370130    0.48137265325654
O           0.39864997962812   -1.47357249935480    1.83785086722346
H           1.05011719275970   -1.46662120194573    2.54253809900276
H           0.29755462592617   -0.51983176565283    1.55241206225718
O           1.14688880044928    1.02550568158216   -2.68730607158116
H           0.55998607174225    1.53411432147770   -2.06250668151255
H           1.25747226330203    1.58407900667035   -3.45805936087114
N          -2.47609464282847   -0.03172040284571    2.24473367542121
H          -2.32286445293437   -0.41166547990844    1.31287590771287
H          -3.42640519796264   -0.23432462870315    2.52665829279540
H          -1.84805937372742   -0.50816647844928    2.87911305900019
