    26
        -50.46666136  Gyration_radius:  2.3992166342 Dipole_moment: 2.501
 S           0.54991352035950    1.08294284994343    0.71600352464870
O           1.15662524665792   -0.17611531944901    0.27029876301800
O          -0.85580626291925    1.12369532420975    0.32072823687424
O           1.29209682428016    2.26210816941347    0.05578302805062
O           0.73125509596344    1.24793641049598    2.15289676198883
H           0.56775551460539   -0.10104609511843    2.70134568269653
H           1.07342096275648    2.32369001477485   -0.92100558705040
O          -1.98536292385239   -0.90647254183133    1.66440654010201
H          -1.78431624001269   -0.03674358976985    1.26047610188104
H          -1.72868528797829   -1.55296033430406    0.96507787194042
O           0.93742837074609    2.31725135928984   -2.49561741264808
H           1.07428590763585    1.33545357822459   -2.62033719030686
H           1.70445652786744    2.75087937306810   -2.87405068026731
O          -1.47922500075412   -0.20722955952554   -1.88105884978531
H          -1.28274122052975    0.32378657994991   -1.07357715458031
H          -2.03750181210884    0.34765647890943   -2.42714768547048
O          -0.56201142226266   -2.20896713905260   -0.13875948614224
H          -0.98471500437876   -1.96669666794698   -0.97083981871895
H           0.14891534748188   -1.54636879350045   -0.02196535188492
O           1.19468604407699   -0.26887839422307   -2.41516423042907
H           0.24231261499441   -0.46409972436641   -2.47256494773282
H           1.38983701915808   -0.31393194926694   -1.45883589495252
N           0.25806602378797   -1.12627701074682    2.90738614782104
H          -0.76692970133991   -1.12889278275472    2.52794840847874
H           0.32051315636799   -1.36237350042603    3.89211293618061
H           0.82572670938897   -1.74834672599979    2.33646028628962
