    26
        -50.45322769  Gyration_radius:  2.57311870578 Dipole_moment: 1.528
 S           0.52980885162455   -1.22220404167862   -0.27796757177491
O           0.64188454570370   -2.06497783686963    0.89747889727530
O           1.16986076534577    0.06654248041752   -0.11673150812645
O          -0.88586365445525   -1.04851468727878   -0.66667882966932
O           1.23274693098891   -1.93345535559441   -1.47340558604685
H           0.74667535031707   -2.79609847385958   -1.51879341732234
H          -1.37408659294838    0.23402885848075   -0.54397568030949
O           1.59396686184981    2.60660543954353   -0.09633561764806
H           2.53515500538879    2.77660362418502   -0.15429158189921
H           1.49912452268438    1.62299767963841   -0.12479503613884
O          -1.70486167223702    1.25177285616830   -0.39807813081643
H          -1.27509844295144    1.55962113307289    0.51568635559706
H          -1.25165436358885    1.81911314697745   -1.09996648435694
O          -0.37330221051732    2.89789899294526   -1.89467998757343
H          -0.71478702533033    3.79208535888866   -1.83231162692360
H           0.43958413395667    2.86541283782344   -1.34431339015919
O           0.14522480641409   -0.31310445932367    2.80190452561601
H          -0.52168289193548   -0.77036388984027    3.31766735144396
H           0.43446059595429   -0.94942519179324    2.11031721748386
O          -0.51157390718757    1.99721365021062    1.68363725925381
H          -0.24868053962742    1.17011613494575    2.15704475589104
H           0.30666143524913    2.35469102004518    1.30732687229167
N          -0.40785323243132   -3.90870123566592   -0.98188654715915
H          -0.57610636173115   -4.90355740922115   -1.06479836247519
H          -1.26845739135187   -3.41334854967263   -1.18177069982781
H          -0.16114552918049   -3.69095210255016   -0.02028316663747
