    26
        -50.45878482  Gyration_radius:  2.46731725587 Dipole_moment: 1.432
 S          -0.74761359494037    0.91743956173591    0.43474670634833
O           0.28031849089864    1.30871066480706   -0.51373695517868
O          -0.28806278326233   -0.13231934323894    1.32687481371117
O          -1.97467402710558    0.50288201987989   -0.26799141706873
O          -1.09474526371522    2.17426049620033    1.27813432304209
H          -1.92030957806876    1.91097728312816    1.73628853126740
H          -1.67681861043973   -0.52648251374348   -1.36556663785785
O           0.35080254833423   -2.06657618082190   -0.31542702604955
H           1.21463661553734   -1.62738515486880   -0.57984836564352
H           0.05237498929844   -1.51721356890969    0.45025364358148
O          -1.22309407885285   -1.19328294898491   -1.98854283002343
H          -0.52029202009028   -1.72477895813139   -1.27283372982288
H          -0.61222506874997   -0.61867837908444   -2.57176746985608
O           0.46024080485103    0.43251900574209   -3.01973581613487
H           0.37660368179856    0.99885865922828   -2.22475699512992
H           1.35356936706205    0.07488137912973   -2.98416299082648
O          -3.40861632046153    1.08005843515823    1.86211279392940
H          -3.11046366866416    0.65023204001641    1.03757338907578
H          -4.20889588891965    1.56527643297280    1.64741451827382
O           2.32117769125597   -0.44446967007596   -0.78160583065599
H           1.71330683745839    0.31341191116372   -0.68840549822563
H           2.72929876424751   -0.50845638003680    0.10934857657308
N           2.58352997466894   -0.42190637872160    1.91448396015701
H           1.57466934319280   -0.27452999136904    1.91738407997278
H           3.00529744594820    0.37012975426633    2.38345198150537
H           2.76998436869283   -1.24355815545551    2.47631423504703
