    26
        -50.45830944  Gyration_radius:  2.4981406807 Dipole_moment: 2.440
 S           0.10763956431945   -0.52561195465020    0.64796367353993
O           0.33182934960012    0.70797774733065    1.37787024022065
O           1.36078658732337   -1.14172892951073    0.22190434391382
O          -0.76517623279792   -0.28804170476456   -0.51875945460882
O          -0.60497633578707   -1.54035475059842    1.55628602234979
H          -1.57972193871392   -1.27045202799555    1.50362170487726
H          -0.21001438387491   -0.46868794399363   -1.83298980275420
O           1.12737973151393   -2.91851210683883   -1.68320648114292
H           1.20172210419060   -2.41107987638683   -0.83923834073363
H           1.98864032056599   -3.30925175150957   -1.84329572858815
O           0.39165107730154   -0.67812018069512   -2.67397480151987
H           1.28490260851735   -0.14733705335858   -2.41911231571031
H           0.63382305188086   -1.65142594849697   -2.51592493093272
O           2.40081978413611    0.39364817505035   -1.66935141873123
H           2.28814148046462   -0.18700129068493   -0.88615854289946
H           2.11458663769843    1.28044550554473   -1.34573054465156
O           1.36718636924567    2.42453823511782   -0.33327212932430
H           1.93612025723008    3.00259269398299    0.17866264060971
H           0.92358774851985    1.83384804807826    0.31681763055035
O          -2.91050826190629   -0.56712457184206    1.13226751644511
H          -2.83232176510267    0.28236956957184    1.64103088041538
H          -2.59262514714805   -0.36322592510713    0.24250450730239
N          -2.16716503777409    1.69527945062833    2.34577291770642
H          -2.20825137346114    1.77888267066790    3.35350093176471
H          -2.38292527802940    2.60207046332618    1.95110112691097
H          -1.20513091788174    1.46630347720823    2.09171035491408
