    26
        -50.45227640  Gyration_radius:  2.45540200522 Dipole_moment: 2.200
 S          -1.10818905054447   -0.38298162765840   -1.10422444630760
O          -0.85847951647727    1.03798314645070   -1.05460209351642
O          -2.29145587403172   -0.79892016872715   -0.40792110498908
O           0.11204899687627   -1.12582465574645   -0.51529643635725
O          -1.13948473044049   -0.84401592501732   -2.55450618349869
H          -0.18197667934830   -0.69415370631003   -2.92305970525331
H          -0.17188004106389   -1.58747981675812    0.34684841340808
O          -0.40988804161861    0.37334064455385    2.75007600757531
H          -0.56507340813824    0.61979052908968    3.66360265896549
H          -1.07567479890451    0.87191246699875    2.21202749012924
O          -2.24418567236188    1.46998830670584    1.18930693072039
H          -2.80918350618258    0.73978774508012    0.90979325239477
H          -1.71934130781941    1.66245872487963    0.39364060798080
O           1.80258072034218    1.27636565842126   -1.39539479649387
H           0.85895407302817    1.44529100295374   -1.24227298301046
H           2.11698898632636    0.89006832232389   -0.54542714614733
O          -0.88710001072301   -2.01242922910822    1.63117573545183
H          -1.76493264007386   -1.87562956939685    1.25035677359484
H          -0.69438536177493   -1.22332572388365    2.18625752745820
O           1.21004024563984   -0.35450472111278   -3.31074083849708
H           1.20360339491668    0.20365028956205   -4.09221121395814
H           1.56110448951299    0.22326041578164   -2.56120857154363
N           2.27509335612211    0.17653248099542    1.06844209548880
H           1.45706611310768    0.38952056589710    1.62981906396642
H           3.09559719153615    0.32652252577918    1.64200988849645
H           2.22815308209596   -0.80720768175010    0.83350909394312
