    26
        -50.46431833  Gyration_radius:  2.56436604467 Dipole_moment: 7.008
 S          -0.38787696851641   -0.93129375332969   -0.05880654223703
O           0.75979570461162   -0.55878514237295    0.80313827473773
O           0.01776716340947   -0.85223482794878   -1.45676092245758
O          -1.54026474374207   -0.12042643931830    0.24548666941527
O          -0.70301224363653   -2.41989379736009    0.22886691640101
H          -1.22185470014221   -2.42458270273750    1.07527454004527
H          -1.60820255941964    1.49917775015138   -0.24690581814978
O          -1.80370197183573   -2.47118798975596    2.58806241013177
H          -1.14826075648099   -1.88091613292803    3.02191344898717
H          -1.72266190336729   -3.33332698245417    3.00177132706597
O          -0.93939219696842    1.10572806664602   -3.04878619869716
H          -0.11148275997952    1.28813075501456   -3.49999676712342
H          -0.78318193289944    0.28439352370039   -2.54486790409728
O          -1.29837546884544    2.32256095027143   -0.68829402789347
H           0.14771253617162    2.19017728992872   -0.32619525614766
H          -1.33253899958101    2.09440964767285   -1.64212508582292
O           0.33136864931097   -1.05233534723853    3.34638407468546
H           0.49248080818347   -0.79602449339867    2.40862722072389
H           1.11738228502930   -1.52413387628002    3.62794695035052
O           2.04599909616789    0.59344809777400   -2.28776615420184
H           2.83261682696612    0.05206848906304   -2.36387868076013
H           1.31660787794018   -0.02535207741846   -2.03673518012120
N           1.16297151922021    1.85923807663237   -0.08242251989349
H           1.04856465640644    0.92632100583180    0.41178442110267
H           1.65935924452581    2.53362658877474    0.48922501373397
H           1.66818084737881    1.64121333085405   -0.96494021979997
