    26
        -50.45612481  Gyration_radius:  2.43738197541 Dipole_moment: 2.654
 S           0.04281556338840   -0.08754307994675   -1.30611945707130
O          -0.65884501417786    0.91691612634153   -2.05146976141656
O          -0.81350718676982   -1.09636738388529   -0.71264329313787
O           0.84672667685310    0.58833476122431   -0.17384915425327
O           1.10827006816581   -0.74342216022326   -2.14567827020145
H           1.35802887085778   -1.65321935987350   -1.63128639023044
H           0.18736257668987    1.08824837793725    0.44633863800288
O           1.48267613803457   -2.77068708261917   -0.78961655553186
H           0.55674404383349   -2.95207704591991   -0.59482073179457
H           1.87537598122695   -2.38144024302905    0.07577376719049
O          -2.85121505120264    0.58766368804643   -0.19804638715334
H          -2.31471112014634   -0.19174025083173   -0.42067841336594
H          -2.92458873139287    1.09192184711130   -1.01282330465155
O          -0.73810825668894    3.40498406432627   -0.99985601213521
H          -0.08670367239392    3.96827635464234   -1.41947484154873
H          -0.74304250963497    2.56878694866771   -1.50250395521944
O          -0.47650936054176   -1.06994365662850    2.03002326460778
H          -0.71562817547151   -1.18534909051982    1.09733621834780
H          -0.73532651730801   -0.17471473081831    2.26476336238228
O          -0.92116282837529    1.80887387875905    1.15204423751737
H          -1.75349674561395    1.39173533486657    0.81786648677482
H          -0.86676486802913    2.64766006119913    0.65673446993610
N           2.26554635648595   -1.60246614536075    1.39170447881708
H           2.92322112539346   -1.99380536549141    2.05291872031677
H           1.36519376920861   -1.47712809834810    1.85857429676653
H           2.58764887772621   -0.68349775982525    1.11478858716569
