    26
        -50.45364297  Gyration_radius:  2.66512188577 Dipole_moment: 3.277
 S          -0.65218449965196    0.85724019366104   -0.75593430416646
O           0.76385678241455    1.06023960316801   -0.59963818821693
O          -1.42088849511559    1.16201281892621    0.42970341698416
O          -0.94148415628875   -0.58143900626763   -1.16558935889410
O          -1.14228387205667    1.69879146619119   -1.93172012283267
H          -2.14636346126854    1.58487857804103   -2.05040200479653
H          -0.30384436398000   -1.27453884508458   -0.59322668364645
O           0.71140283498539    0.11781575289320    1.91422620481615
H          -0.14960272817748    0.44291545871063    2.19347749868636
H           0.89834979613661    0.60924784616180    1.09323933532227
O          -3.67278738624253    1.39703905901570   -2.04424004168312
H          -3.80500583366759    0.70262774358227   -1.34697951144251
H          -4.09910521472282    2.19353616773414   -1.71930677770723
O          -3.57530942861665   -0.31405854542846   -0.05094438863407
H          -2.84530865033681    0.22097234179183    0.32065275263285
H          -3.16382931251804   -1.11408374782819   -0.38944230765002
O           0.55452589989360   -1.97509860770035    0.19746699435523
H           0.59873517961771   -1.43920609254247    1.01707729859038
H           1.42815346590478   -1.77965245055269   -0.27092064278933
O           2.67983658877573   -0.95794795983140   -0.84674037992659
H           2.21494617971617   -0.12546908227116   -1.01335005914900
H           3.19616669379311   -0.80723191867747   -0.02007005580984
N           3.68318787498580   -0.48074341948079    1.64571158904617
H           2.79677396613945   -0.27164643503083    2.09336512564622
H           4.28299881975187    0.32732044526452    1.75228688964904
H           4.10906332047057   -1.25352136442619    2.14129773161641
