    26
        -50.45966097  Gyration_radius:  2.4505902613 Dipole_moment: 5.814
 S           0.28977856956421   -1.37928115705283   -0.43293269853760
O          -0.29538416147153   -2.30162071722050    0.49783774441688
O           1.03105023612828   -0.29854105724229    0.23495690608999
O          -0.84603712166356   -0.67254196418989   -1.25524084790039
O           1.10987902896881   -1.99551385215962   -1.47888151643755
H           1.07889359440793   -1.05523124290800   -2.51820723392326
H          -1.50782851744032   -0.25690397764432   -0.60996473574025
O           0.56419520879933   -1.30872199213595    2.78294966356461
H           0.21248997301913   -1.86797034928489    2.05936834475211
H           1.24785593409758   -0.78740636454333    2.35037582275596
O          -2.34793814644019    0.59065448791359    0.36950189099249
H          -1.78790020049367    1.38963380761604    0.37256017054967
H          -2.25615512928421    0.26174875590373    1.28756594145754
O           1.73346075242731    1.57735619663550   -1.45100482995158
H           1.65283299552659    0.86312882185790   -0.77380666539130
H           1.19489531539343    2.29541491310084   -1.10429036754096
O          -0.13727984467232    2.02518387512928    0.93492666106247
H           0.31084168717430    1.17185053187017    0.76602952368035
H          -0.36660790437645    2.00693769984191    1.86856199177566
O          -1.59522774572486    0.22226520883630    2.93737698918619
H          -2.17385901384192   -0.15987801505064    3.59784565866872
H          -0.77930583028992   -0.33821349865830    2.94065611266261
N           0.95181282363196   -0.19317106132851   -3.22589505447838
H          -0.04635462713026   -0.12334304847304   -3.40818167786039
H           1.48688170535610   -0.31347827416888   -4.07965299490419
H           1.27501042839634    0.64764226337274   -2.66245479897766
