    26
        -50.45597482  Gyration_radius:  2.46928750559 Dipole_moment: 2.849
 S          -1.51121882733505   -0.43880342912175    0.72908809722511
O          -1.54703751138986   -0.04730819507428    2.11000092328613
O          -0.32864468690826   -1.18490619863961    0.36689836383460
O          -1.62170252839746    0.79807289719041   -0.17697338596316
O          -2.75686625769046   -1.23657843114412    0.37975719228801
H          -2.63173756590246   -1.56490901795979   -0.58789553141178
H          -0.82515626927519    1.44321078365412   -0.01808615209644
O           2.15403623469909   -0.66171593457553    1.28485143929554
H           1.31645321925496   -1.06959925206838    1.00251251926152
H           1.90090354552827   -0.04970190422033    1.98996634800894
O          -2.24231201471939   -2.05571620608142   -1.95362823215317
H          -1.84858471603997   -2.92082329154114   -1.81698613314884
H          -1.48860909737266   -1.45193994997796   -2.24560798164014
O           0.39755691617999    2.22209502330385    0.27359427950986
H           0.58908877019915    2.02046999454549    1.20950444266230
H           1.12164092723742    1.79828586546233   -0.24724622279115
O           0.66731870797013    1.19498820773932    2.78544314139837
H          -0.16547186224765    0.69013466754977    2.63595705388109
H           0.55968707283766    1.64567097056067    3.62502409775886
O           2.37551138428976    0.85398505097050   -0.87122011889480
H           2.39946461839313    0.20959248515860   -0.11823839929522
H           3.24584024227210    1.25289985024013   -0.91141691089801
N          -0.15148415662960   -0.52714628121029   -2.42263441011256
H          -0.41518251065922    0.44835588598968   -2.48124042002763
H           0.61717413585234   -0.68017894401408   -3.06314303754254
H           0.18933223983272   -0.68843462680955   -1.47828095246081
