    26
        -50.47562126  Gyration_radius:  2.39549597934 Dipole_moment: 6.102
 S          -1.60202449930646   -0.10244191728044    0.78533988336176
O          -2.20420803830476   -1.29619625767736    0.24553954340044
O          -1.17555961102797    0.80943151070338   -0.28930335914781
O          -0.47063124195959   -0.38735454085470    1.66576660264042
O          -2.67683270317383    0.65718852434756    1.61461276590213
H          -2.14705480856185    1.35180254106433    2.05382233083673
H           0.80115215611322   -1.30935960811868    1.13449215519774
O           1.46815166897573   -1.76794622246600    0.57236505903684
H           0.93021106325277   -2.31789954300518   -0.02381972380726
H           1.96100602909230   -0.58871541099945   -0.28876488335497
O           0.80332148195470    2.39223855607308    0.07811291962367
H           0.64235873584511    3.14469927626870   -0.49416836728511
H           0.00093417807408    1.80296041977600   -0.02305405049535
O          -0.49296658766493   -2.68377698264096   -1.11967707123319
H          -0.87635075067526   -3.54179504280801   -1.30899753399556
H          -1.17781489744810   -2.19477191041065   -0.59057069026492
O          -0.63862129002335    2.07446103607054    2.56496410227831
H          -0.08138911653065    2.54730006281131    1.93433813988926
H          -0.34224935814263    1.14770672928891    2.51068403244832
O          -0.05674453777873   -0.30638940303314   -2.41867565943894
H          -0.20814039688982   -1.24907423214906   -2.23384672796564
H          -0.63043700281550    0.15804820348757   -1.77071816784624
N           2.06511090733081    0.22849046698551   -0.98585212256388
H           2.99720273342235    0.27576255483172   -1.38058946526675
H           1.80033501084749    1.11551699800543   -0.50789849905096
H           1.31124087583966    0.04011421271431   -1.72410120232842
