    26
        -50.45748036  Gyration_radius:  2.49157389485 Dipole_moment: 4.369
 S           0.43800136157112    0.90582298688811    0.31968573998666
O          -0.85363152785321    1.00709977538692   -0.36060875094143
O           1.41805706804521    0.21710977808146   -0.50245780005524
O           0.26549361437955    0.23144573984508    1.61622720736491
O           0.98155378166292    2.32122488202410    0.57025092010334
H           0.31754536990788    2.82406223102897    1.12817229781126
H           0.09107329232163   -1.18908998399314    1.43902511779691
O          -1.26187524971657   -1.52043819550325   -0.97401401248441
H          -1.29150994635273   -0.55080285711760   -0.80255658894679
H          -0.65376356778215   -1.60119562514016   -1.75121592656172
O          -0.86181689739079    3.55526047629010    1.88830132205933
H          -1.29414022759555    4.18678426852270    1.30937617226611
H          -1.50161737222681    2.80775397089750    2.01568932547875
O          -0.01361258020165   -2.16930986778528    1.07081999742410
H          -0.62210721510610   -2.01056179131902    0.19023602142106
H           0.92021144954847   -2.37912308414038    0.72521092074811
O           2.29410283679710   -2.19937910626425   -0.01948079111056
H           2.15095330249398   -1.23424413257951   -0.17252410044116
H           2.37390734412759   -2.60323263832941   -0.88588078048922
O          -2.27055623531480    1.33702422333075    1.85707777774455
H          -1.94584702423500    1.19102564018448    0.94596889293167
H          -1.72546947444815    0.75940208601717    2.40176821397191
N           0.58620229657131   -1.14894517814012   -2.87775972257753
H           0.11600994694881   -0.56752468647991   -3.56082475268279
H           1.31753000364561   -1.65076283471763   -3.36640753226460
H           1.02530565021466   -0.51940606697681   -2.20407914854883
