    26
        -50.45357000  Gyration_radius:  2.58082491108 Dipole_moment: 1.490
 S           1.08563143057341   -0.39862974124558    0.18321701159152
O           0.93761256490331   -0.50808206758164    1.60937242361778
O           1.64175744726084    0.86239781569330   -0.25186811468184
O          -0.25551419870303   -0.62886714308864   -0.50523046038036
O           1.94936084841311   -1.55380611061485   -0.31086447252727
H           2.05763101317998   -1.47871279832256   -1.32638080274331
H          -0.97073121426423    0.13183099840736   -0.22781036490660
O          -1.06085395784453   -1.94650316245373    2.60663218273704
H          -0.29809394343533   -1.48528399541813    2.20109126217033
H          -0.82223311846298   -2.09545175726209    3.52346127805588
O          -1.81346162203809    1.13956307104196    0.23223478199710
H          -1.20355158054877    1.71158138001150    0.75699540394031
H          -2.38856859540321    0.67415517570194    0.89458262907433
O           2.24154271599996   -1.19000618645544   -2.80606163422985
H           1.60291319125878   -0.43222311785185   -2.97558778925732
H           3.12445913667001   -0.82885582762104   -2.91428498421079
O          -3.11352885970696   -0.34604213363595    1.98215282840114
H          -3.77440738384716   -0.90327067519091    1.56777003480822
H          -2.38759666607365   -0.94903750399268    2.26134990483281
O           0.21016008984756    2.21111941916300    1.58180862464836
H           0.36702131282802    1.57776939354668    2.28902288866301
H           0.86845010051181    1.98463803047728    0.90302658765686
N           0.65291942658688    0.91102832955214   -2.91855085616684
H          -0.31516194179918    0.63081906096984   -2.82375575571009
H           0.69103802922632    1.71135746730363   -3.53687247866728
H           0.97320578488105    1.19851204889430   -1.99545012869495
