    26
        -50.44842182  Gyration_radius:  2.51773785525 Dipole_moment: 5.226
 S          -0.97098614716967   -0.14812047105893    0.91289457699884
O          -1.59439870978546    1.04023421465195    0.43475084101912
O           0.40424665884957    0.02915009863189    1.33934874779899
O          -1.01281876848599   -1.26524171322731   -0.13927999547243
O          -1.78360620788514   -0.74364992326464    2.06042559287136
H          -1.36184201281644   -1.63170148863534    2.28367730357212
H          -0.41106916766913   -1.04472098966193   -0.94133966113338
O           1.68988036054012   -2.26691840908982    1.21716584644401
H           2.58355867299573   -2.18067963411972    1.55449706356890
H           1.30708959825983   -1.36429555462599    1.20912777717970
O          -1.72072454780741    1.19899579408921   -2.39035832619068
H          -1.07643825306561    0.51391779401263   -2.59262785643471
H          -1.87901774737016    1.14842960961829   -1.43788123763269
O           1.76044482291731    1.19581252554801   -0.72451325310513
H           1.44978176168800    0.91647743784992    0.15030864403121
H           1.24157862889512    2.02454165194768   -0.92085575171037
O          -0.51310548308524   -2.90739180777727    2.60421844278651
H           0.29087063169157   -2.86181879201835    2.03998949856907
H          -0.21592962864822   -2.90466608163753    3.51732789624960
O           0.54292731989483   -0.63568291180264   -2.02229884548110
H           1.08931556078915    0.11396281415483   -1.59792897315404
H           1.15303318774782   -1.35729614912041   -2.19014662278799
N           0.00952620753513    3.16603845351625   -1.07692206122640
H          -0.56461055702826    2.94128364319309   -0.27024595482258
H          -0.51920786933088    2.85091611442952   -1.88757985772365
H           0.10150170838929    4.17242376431361   -1.13175384419989
