    26
        -50.46247238  Gyration_radius:  2.42042859275 Dipole_moment: 7.254
 S          -1.05967818289296    0.88941251341134    0.23498194405281
O          -1.00701208674481    0.28724250837827   -1.09346141391126
O          -0.35175067041553    2.14241053889672    0.31470047537828
O          -0.36966829317409   -0.14070581171038    1.21247182782620
O          -2.42860792466765    0.93766536390176    0.74734272035541
H          -2.69207076018392   -0.44985765118641    0.91689069803493
H           0.39256899371477   -0.60978014902525    0.77056941354817
O           1.49907633666104   -1.54592065381195    0.09178628696476
H           2.00343581715893   -0.84717548062578   -0.44499711726612
H           2.11837627342751   -1.83401341831878    0.76504390523720
O          -1.05693310382971   -2.28490053271216   -0.81289081490484
H          -1.06453029946366   -1.36018045002209   -1.15908144814862
H          -0.13771714955629   -2.40846018405180   -0.53528289100653
O           2.76108393362723    0.39699140093146   -1.00084417496532
H           2.17397279077432    0.86899852350832   -1.63112786427339
H           2.75597727470116    0.95482456460997   -0.19942355171383
O           2.13636842393276    1.87582730212201    1.18968880375480
H           1.19324969571734    1.97440757587275    0.93630916026619
H           2.44152782544863    2.75554538431095    1.41622584094332
O           0.84843056678338    1.82479687453722   -2.23966511054758
H           0.70707846918129    2.55771796363512   -1.63254652537106
H           0.12441427531790    1.20761377242679   -2.02791131995741
N          -2.75796720115259   -1.55555971404812    1.03283499170814
H          -2.06867689992674   -1.96765942758372    0.31065349425736
H          -3.70499704575713   -1.88067901018606    0.86353187852228
H          -2.45595104868266   -1.78856179327120    1.97420078117228
