    26
        -50.44967018  Gyration_radius:  2.56341123648 Dipole_moment: 2.044
 S          -0.10339176084180    0.24904962934153   -1.28280995371351
O          -0.32807946235114    1.07333021278612   -0.11308725687800
O          -0.64458490275188    0.78965118797647   -2.49135546631399
O          -0.70752930751105   -1.14754481800218   -0.99628974432974
O           1.37263750927063   -0.02248628315862   -1.46126023221089
H           1.74453366195685   -0.78986906895948   -0.79810163792204
H          -1.62022917497394   -0.93265089850950   -0.62340208666145
O           2.30990783982250   -1.72150307277194    0.06143716099958
H           2.38633201006532   -1.23483342487304    0.97053564992703
H           3.20639910763189   -1.90360111300209   -0.23010060380005
O          -3.31388330243704    0.87920685183192   -2.53341472682799
H          -3.61562071641051    0.40873259195600   -3.31255505097059
H          -2.34651771896529    0.98344238872584   -2.63341219223434
O          -2.85302678110740   -0.10440327709254   -0.11158950885597
H          -2.36699109716834    0.65080324702868    0.24149785467753
H          -3.26028133731161    0.22092270580061   -0.94645546628663
O           2.13175158360768    1.87021404620319    0.70003993877458
H           1.19633993327384    1.71930023880142    0.47807862186828
H           2.59986840999805    1.88489124220227   -0.13692674226389
O           2.40931707657061   -0.37576597319731    2.20519624958269
H           1.46738585408000   -0.49078734212394    2.47668410099883
H           2.45156825214104    0.52690978173683    1.83208630759080
N          -0.27174504708051   -0.63331841959245    2.27588729359400
H          -0.38753151555222    0.05421023074364    1.53558252512017
H          -0.93734418555882   -0.41915650502422    3.00739659892055
H          -0.51928494838755   -1.53474414881779    1.88633833719797
