    26
        -50.45413227  Gyration_radius:  2.46548042795 Dipole_moment: 6.931
 S          -0.28462797272881    1.21432279395021   -0.46361369227066
O          -0.38331200632898    0.95482206745947    0.95305571552473
O          -1.28207837922620    0.57914608214166   -1.27617066121406
O           1.10359378966979    0.78218974827024   -0.93624606194101
O          -0.32262833777143    2.72263240619145   -0.72015464510691
H           0.31676119887860    3.11005764721604   -0.01696629852705
H           1.57324938999393    0.20524274201431   -0.15520756409704
O          -1.34772938636271   -1.60690413460881    1.43132448155078
H          -1.13114982549347   -0.66397765101955    1.39987184957683
H          -2.06578485385644   -1.72876012456988    0.78073369231434
O          -2.89771960619681   -1.63521984798321   -0.81226597165913
H          -2.59020927535205   -0.74351191408206   -1.02890350947962
H          -2.44109385222897   -2.22246810956015   -1.42123133176737
O          -0.10385264269157   -1.68440784834095   -2.21189106744716
H           0.64175146735670   -1.43160986173943   -2.75894789800111
H          -0.54573055312579   -0.85467958687091   -1.95971343797659
O           0.76244383015079   -2.67305632733125    0.20504035999591
H          -0.03863572390469   -2.48451944803233    0.74791903093592
H           0.49014959924558   -2.50059919886160   -0.71466173272518
O           1.97188545792565   -0.55696295951037    0.94368090781796
H           1.63970061015038   -1.48418751425928    0.66392228994637
H           1.33850025924963   -0.26974050199995    1.61216984345172
N           1.26905104390135    3.27110063309240    1.21402428363080
H           1.24830824883203    4.13962858977609    1.73207397520731
H           2.23132845032652    3.02601615275875    1.02053551153317
H           0.84782904979173    2.53544615587806    1.77162193013905
