    26
        -50.47022466  Gyration_radius:  2.39146401324 Dipole_moment: 4.348
 S          -0.73589881265843    0.43556914953032    1.14691777829846
O           0.29536394616714    0.43800558795781    2.16858672599833
O          -0.80828385940426   -0.86153218000046    0.46092688331511
O          -0.50468488072109    1.50828783618442    0.17173115555606
O          -2.09950812239789    0.67816246271064    1.82174866047564
H          -2.77382505950234    0.39872794282004    1.13232138687288
H           1.11669186857616    1.81460356434236    0.14621975379974
O           0.25115252214352   -0.96018397369093   -1.94138676365536
H          -0.17813956966464   -0.90577122056030   -1.05420095113472
H           0.15935878390923   -1.87249184868363   -2.22332842152682
O          -1.94916747721621    0.93828068713920   -1.99130146788168
H          -1.32295817388167    0.33986803780924   -2.41623167894937
H          -1.44366825102499    1.33604271420785   -1.25642923837994
O           2.66304085320973   -0.61243127970159   -0.72873399829310
H           1.92294331856181   -0.68287504319996   -1.36565733664786
H           2.43004933239237   -1.25267504023870   -0.01821252118445
O          -3.46034926579291   -0.26822558723070   -0.14874377707216
H          -2.95669225993350   -1.08804652393312   -0.11114172404749
H          -3.09614593848543    0.22402986070121   -0.92286195403027
O           1.49389071548668   -1.97154428099198    1.25560263539364
H           0.59236718287261   -1.70478245022604    0.98868155622007
H           1.59773561878195   -1.59733937578472    2.13388052144372
N           2.03130089827933    1.52925427935349    0.57848857494784
H           2.42992229053998    0.70525588639883   -0.00827512993075
H           1.66447843670274    1.13425364823931    1.47751009304837
H           2.68102590298651    2.29755714697217    0.70388923738390
