    26
        -50.45011761  Gyration_radius:  2.4796638415 Dipole_moment: 5.675
 S           1.15204993134511   -0.13467976407983    1.42268777051255
O           1.60991463718891    0.21866208314054    0.10102420299551
O           1.43214452404563   -1.47573258430835    1.82074768314193
O          -0.37644106657956    0.13725912648857    1.50620649539863
O           1.68913083543156    0.86338485871954    2.43933898759609
H           1.30806070104565    1.77141728066305    2.16268118066733
H          -0.93999012226892   -0.58042357948643    1.09596267228373
O           0.35741650770376   -3.12833140171230   -0.07437807858223
H          -0.56134153291405   -2.96615033341641    0.16608280784773
H           0.88637638933024   -2.72957304257777    0.63615373601199
O           0.76566599217803    3.06952261449279    1.59065491773860
H           1.51455840869573    3.62200545958768    1.35473986124109
H           0.30904034353343    2.82740745097319    0.72718663851973
O          -1.98033513857941   -1.53827810569856    0.36622023762705
H          -1.93644871936036   -1.11410308456800   -0.53793631029724
H          -2.85018867780652   -1.34754375116582    0.72238931550787
O           0.77281116488917   -1.28154728087243   -1.99052016152849
H           0.68259957410315   -2.11771946734698   -1.48569401394140
H           1.26438722854896   -0.70075764437406   -1.38662180624219
O          -1.66196914917704   -0.38524432086989   -1.95230505143608
H          -2.10798612007003   -0.77425178434791   -2.70647075076608
H          -0.69996675633505   -0.66387928378265   -2.03978133791579
N          -0.13947420034853    2.27251710696550   -0.76138875743331
H           0.53465930393153    1.50953168624860   -0.72304807677877
H           0.03072386158415    2.79781156625421   -1.61009154313252
H          -1.05539791010293    1.84869620509274   -0.84384061902000
