    26
        -50.46438017  Gyration_radius:  2.41496511167 Dipole_moment: 4.133
 S           0.79127862115806   -0.75419022360789    1.21803741586651
O           2.02466791971966   -0.50588043780200    1.95009531922178
O           1.05070100677636   -0.92204563843419   -0.21173266732324
O          -0.15740126233045    0.34102500396353    1.44296623107451
O           0.15672012477186   -2.06559876700833    1.74245517780481
H          -0.81028291227076   -1.99451415609777    1.51592466094954
H          -0.81377579948528    1.22884292990408    0.13443363496719
O          -0.23813297485688   -2.07276277360916   -2.18623221772119
H           0.27346964962676   -1.76200964031137   -1.40578170324792
H           0.29386352439122   -1.84485475255782   -2.95078184744804
O          -1.05141539419623    1.65737880894723   -0.71147689246297
H           0.59798019630985    1.74063758094267   -1.18572390108816
H          -1.60855629064895    1.00927104846836   -1.16431399446853
O          -2.40382117295909   -0.68839110989090   -1.56936987329096
H          -1.62670787440483   -1.22552225234316   -1.86154006414300
H          -3.16113313861948   -1.01280931349265   -2.05868740342409
O          -2.24008053895196   -1.30290570391837    1.10695799541767
H          -1.84658720081775   -0.47186367321062    1.41340942551603
H          -2.38985277380166   -1.17058579152438    0.15034588220378
O           1.55231467592581    1.49239173841969   -1.11802071392924
H           1.51124935916490    0.52467043212163   -0.94481310810400
H           1.91128103628063    1.90706343640624    0.26458517688611
N           2.04109031563452    1.99767060261724    1.35723257387374
H           2.16772355192070    0.97965458497017    1.69653435150790
H           1.15928250152272    2.31783395851606    1.75382599163299
H           2.81612484013778    2.59749411851437    1.62167054968938
