    26
        -50.46431591  Gyration_radius:  2.44412339199 Dipole_moment: 4.393
 S           0.16060163374791    1.52511711580428    1.11920422222801
O          -0.59032105613536    2.68610163654785    0.74327253724152
O           0.94851787431562    0.96998961675047    0.01126869275721
O          -0.64330416081305    0.45908952642755    1.72481218276836
O           1.20521353306149    1.96840246680992    2.21302601374610
H           1.62586489478678    1.13910591462684    2.48011768773570
H          -1.41617086988409   -0.91413286305507    0.96502052733511
O          -1.48295562385536   -1.69656632051063    0.38279006598211
H           0.07296460160191   -1.86800596559295    0.21230329633908
H          -1.72684668953069   -1.34030211430365   -0.49266077041781
O          -1.74200025215027   -0.47843649368367   -2.05158051863626
H          -1.62422915192062    0.49057196294663   -1.87763102329987
H          -2.52511853452165   -0.55518959960047   -2.59858250572982
O           1.01713353195400   -0.64599013794337   -2.43787487057483
H           1.17363339985080    0.15269546640438   -1.91845891276937
H           0.05126264756802   -0.70627263558892   -2.51012376528374
O           1.42336962970426   -0.72354959103054    2.72718718184057
H           1.32121513053882   -0.93285582246287    3.65746283231262
H           0.53792299867473   -0.41687761625373    2.41664218479733
O          -1.33486436078494    2.10082959011248   -1.70366616958517
H          -1.15883436682577    2.36237060054547   -0.77234836202018
H          -0.58454510175809    2.43027215939992   -2.20272386895826
N           1.09995766448309   -1.61946349244320    0.03456969127923
H           1.32846777959575   -1.76566613249534   -0.96220034748628
H           1.73235625146010   -2.06497992159384    0.69095275647297
H           1.13070859681735   -0.55625735980779    0.14922123194846
