    26
        -50.47202824  Gyration_radius:  2.47718170603 Dipole_moment: 4.474
 S          -1.38419786822725    0.41864013526151    0.50616866905750
O          -1.11338210680015   -0.82398321296001    1.19039714987321
O          -1.08851131766813    0.31449058327035   -0.93312766839343
O          -0.66906884224678    1.55627656504236    1.07705011661651
O          -2.91281889173485    0.69360198759622    0.63488685046862
H          -3.00662158499007    1.62317265076882    0.34413172495241
H           1.05872115813426    1.48488078076824    1.24765782617772
O           1.61577945219613   -2.34600750339422   -1.05620228926007
H           1.96007578552871   -3.13478097948407   -1.47630954424125
H           0.61948837605813   -2.43215592265669   -1.06461837579132
O           1.49814765135407   -1.37047094640400    1.64032987612275
H           0.53195033057576   -1.23837188847717    1.64725115048075
H           1.68737841338125   -1.86994822962254    0.83471468841785
O          -0.99898470717567   -2.34297314030620   -1.00938039290475
H          -1.17078712951151   -1.42449588084680   -1.28761323432417
H          -1.18926365626154   -2.30024379708096   -0.05992772445132
O           1.97583369625048    1.17856807423976    1.09585023332075
H           1.83690593274037    0.77292305895089   -0.35542308578136
H           1.99781541768771    0.28104094727109    1.50380799824241
O          -2.44022260408578    3.25384816374892    0.17402898930667
H          -2.72374281913936    3.86446076458551    0.85836247050148
H          -1.61141632440899    2.84161309802328    0.49487253307589
N           1.49409434810609    0.36049177336626   -1.30404294592981
H           0.43324572979084    0.41670454575764   -1.25766514393993
H           1.74278617998141   -0.64599955667271   -1.34272438059907
H           1.85679542048229    0.86871790921770   -2.10247551097513
