    26
        -50.46870529  Gyration_radius:  2.48869959412 Dipole_moment: 3.864
 S           0.03920822177349    0.98557436773815    0.70754938628427
O           0.40275139380674    1.39886694712635   -0.64590587992388
O           1.13468508857240    0.28232169679281    1.36234182693991
O          -1.17487724708847    0.16448166870414    0.69500797074499
O          -0.23311286828835    2.24237450571594    1.56217987325306
H          -1.01982735180241    2.71685631063059    1.17848925624397
H          -1.15206418924804   -1.37206423572418   -0.01650393667015
O          -2.18234079540694    1.49970140512072   -1.35625394717147
H          -2.08892248057192    0.83388209112328   -0.64889208255761
H          -1.26083867166328    1.70067731793934   -1.57592620480997
O          -2.37600004549880    3.31218515358547    0.54422711093246
H          -3.12954915949032    3.07784667508927    1.08990820814204
H          -2.44302331784638    2.76314240688994   -0.27755959739126
O          -0.82774230279133   -2.19854317548625   -0.43867475133508
H          -0.30656058127581   -1.88867952152550   -1.19851179854206
H           0.28371178685397   -2.48546691521489    0.63729227242056
O           0.96196662630829   -0.75238514004732   -1.95857025201666
H           0.76765242063586    0.09309583342943   -1.46989932507782
H           1.00394368408396   -0.51735618234225   -2.88718091877163
O           3.01398268683128   -1.33947809077290   -0.24477517841124
H           2.43376936578797   -1.21433725403739   -1.01827558922851
H           2.91185751226816   -0.52766049192847    0.26738483303474
N           1.10534860933566   -2.29837784994232    1.29753967933396
H           1.01017881424656   -1.27000885968094    1.55640579883986
H           1.99194610510755   -2.29354153621435    0.73663627711770
H           1.13385668584973   -2.91310714696805    2.10196695956877
