    26
        -50.44947947  Gyration_radius:  2.59901532492 Dipole_moment: 3.351
 S          -1.30653187009729    0.15570133683083    0.35252101703307
O          -0.21547258663733    1.00632055707151   -0.09105723189924
O          -1.12089102984317   -0.39656146329605    1.65140283981267
O          -1.50424143438624   -0.94071762043579   -0.70969465713333
O          -2.62343594760062    0.92710888725044    0.29697610394095
H          -2.89425324537528    0.99593972627842   -0.68422835204333
H          -0.54463948220838   -1.21310361730787   -1.01573071611827
O           1.80727386139449   -2.83306470404368    0.63679657143099
H           1.33999630200378   -3.64997614205883    0.81626398186368
H           1.68828378790053   -2.26317495164267    1.44852818361888
O          -3.05071559976740    0.94337091039482   -2.20665468501928
H          -2.21731351825252    1.38000802933938   -2.50716792169380
H          -2.95182390616328    0.00801992299117   -2.40767895193969
O          -0.64569637960577    2.00184842731876   -2.50550063829284
H          -0.38136873004412    1.66627396462141   -1.62256031746525
H          -0.54703082810079    2.95521395029684   -2.47805039274749
O           1.29734279689233   -1.24891274388219    2.64821433100922
H           1.76410661596719   -0.41033716238325    2.44812475890138
H           0.36206585508925   -1.04199762675987    2.49753628249836
O           0.87653986938120   -1.36725328226417   -1.28966395312023
H           1.22155498714987   -0.49059008411670   -1.09472636193337
H           1.27350437839654   -1.98396768607127   -0.60477775485240
N           2.11414129012378    1.20300952912577    1.72166251559774
H           2.01221145930827    1.93080659250737    2.41756439051368
H           1.30594324571366    1.25302646306468    1.10594501128909
H           2.94045009858660    1.41300879711313    1.17595594682472
