    26
        -50.44947955  Gyration_radius:  2.5991878481 Dipole_moment: 3.351
 S           0.62139124151505   -1.21210692351641    0.01002445370033
O           0.61960994283998   -0.00985650914754    0.82569853581774
O           1.19216514103408   -1.03604614164279   -1.28213413019944
O          -0.82893886385058   -1.72147265120905   -0.07236932124851
O           1.33865759261777   -2.34061063687175    0.74783644020813
H           0.71053098256469   -2.67248688308763    1.48003325993508
H          -1.42199605988116   -0.86837038985792   -0.16646465558872
O          -0.41927079190762   -2.96321977865236    2.47205179921639
H          -0.52820837787202   -2.08574812934221    2.91218336744194
H          -1.18826941741516   -3.07728460597784    1.90565927898145
O          -2.00752108548915    0.46241104881807   -0.24077941688443
H          -1.37027595509945    0.99665327067430    0.24302521364721
H          -1.97409409250991    0.77871759915653   -1.19246911204439
O          -1.70418551303117    1.22738715262219   -2.70023065189033
H          -2.00036691722745    0.61784235724721   -3.37748863266257
H          -0.71354103058122    1.29836269038403   -2.80714003505761
O          -0.44213566206453   -0.42505077056291    3.21445205911253
H          -0.05725428635321   -0.16295482253497    2.35117181077702
H           0.17074361108846   -0.12931896383717    3.88993682912073
O           0.90386420323892    1.22937350257006   -2.81625354831144
H           1.11145444230691    0.34775134546485   -2.47000106861898
H           1.19839208948506    1.84092769566432   -2.10894268394498
N           1.62151052211240    2.45524619217242   -0.46670115074260
H           1.35938818684810    1.62565691719770    0.06043198240409
H           1.18454704701286    3.25763131183365   -0.03085871954444
H           2.62380305063694    2.56656610270336   -0.38067191375209
