    26
        -50.46158832  Gyration_radius:  2.43416077939 Dipole_moment: 2.655
 S          -1.20739489135462   -1.31663788072227    1.22910323540152
O          -0.66498670777736   -0.66028875765262    2.38718038067687
O          -0.18030156674172   -1.79262162193091    0.30475943784818
O          -2.19893828531165   -0.51451273916132    0.51362609485230
O          -1.97617344804388   -2.59597431330143    1.74153066921954
H          -2.36211087451159   -2.95913972779792    0.95073289612238
H          -1.74399901865853    0.23953018061197   -0.72357852759062
O           1.67321984669162   -0.05190544247976    1.01750540406140
H           1.07612857727899   -0.78212710623027    0.74960615812796
H           1.53351565545749    0.02616169095054    1.96587657087247
O          -1.25382309642880    0.73369657456983   -1.47084868589994
H          -0.58462711650227    1.36588518245338   -0.94855921595427
H          -0.63617165973122   -0.02495676934498   -1.92928197882311
O           0.26009906190020   -1.07783526730090   -2.23127425500309
H           1.15918558965857   -0.64035061865336   -2.18376115260507
H           0.16695223495865   -1.57019991413548   -1.39221710427458
O          -1.46245513249024    1.84172601849843    1.95451060894840
H          -1.16407110358837    0.96911463722188    2.27990284626264
H          -2.32791821430464    1.67647039692740    1.57194360714714
O           0.30855299953129    2.03277377490637   -0.00584241399388
H           0.93105338956720    1.34781988947322    0.32612703653832
H          -0.30571455382639    2.19386766795380    0.75034197014435
N           2.53020975110975    0.24756111296710   -1.81315011589032
H           3.39283794028583   -0.04045780269833   -2.25622676083533
H           2.62885905205029    0.11290439192816   -0.81163507951668
H           2.40807156076716    1.23949643294545   -1.97637162583180
