    26
        -50.47216064  Gyration_radius:  2.41259851667 Dipole_moment: 6.328
 S          -0.09973683111398   -1.00188613805625   -1.42818248598681
O           0.30107366059612   -1.45649171935230   -0.07571740522888
O           1.06867765737025   -0.62497020062996   -2.18839257993758
O          -1.07894592925517    0.06740500171666   -1.32537202702543
O          -0.77311540750622   -2.22339271118530   -2.10980742723300
H          -1.62528075931924   -2.28704607086179   -1.62443792188012
H          -0.77585406640314    1.61196205997084   -0.65458734667268
O          -1.45553603879575   -1.08815075893799    1.81517619921446
H          -0.81035816829311   -1.24971327135006    1.08302849970706
H          -1.28864283332862   -1.76227470499516    2.47607322057784
O          -2.86966230593080   -1.71581449288390   -0.58518290492361
H          -2.57581376268468   -0.84059922894949   -0.89138598053595
H          -2.72258363144072   -1.69199753673691    0.37071338088123
O           2.13423372096663    1.57716613191594   -1.31664517665564
H           1.71029658935625    0.77718428750456   -1.72667036848106
H           2.78927034329975    1.87810947556948   -1.94854641734862
O          -0.15355380505590    1.33308608758594    2.20729885929603
H          -0.78630849488151    0.59133090022497    2.18411912234433
H           1.13498660206399    0.76568955714942    1.64981665869342
O          -0.37944647976561    2.38555083074372   -0.20718473957949
H          -0.37546563698631    1.88879335858274    1.42030540614717
H           0.48772068194622    2.48287012442171   -0.61830195176617
N           1.89458518824534    0.27034962008340    1.04466899860207
H           2.18929141269744    0.89938323224585    0.27431343168583
H           1.37428457668363   -0.53417275183654    0.58539029357079
H           2.68588372752544   -0.05237108193737    1.58951068253550
