    26
        -50.45289816  Gyration_radius:  2.47733114528 Dipole_moment: 4.191
 S           0.68486490983064    1.31451694350756    0.43416753808295
O           0.99862502048445   -0.09636575128911    0.59128937198858
O          -0.11339477823713    1.86880672967283    1.47604583897405
O           0.01327939094108    1.50330432618021   -0.93488442676182
O           1.98727625470248    2.09636204389638    0.28537749423507
H           2.60222430536354    1.49304238738811   -0.25813444579182
H          -0.87571500835199    0.92177497060936   -1.03480587006999
O           0.05722706045134   -1.84977024585228   -1.12397738709545
H           0.42604964361665   -1.25118420220402   -0.43301603301693
H           0.02795176009564   -2.72920544429696   -0.74474920135478
O           1.39500175111932   -0.06922152090137   -2.83512164119173
H           0.92632463684937   -0.85390505606831   -2.51527117280869
H           0.84086555888572    0.68321008732145   -2.59356011090987
O          -1.93310964364243   -0.00497963690239   -1.20539511961394
H          -2.43928991672702   -0.13135414032665   -0.35568523454459
H          -1.43956740009331   -0.83347878060311   -1.34523517658427
O          -3.10774615550144   -0.38002980329383    1.10365347461856
H          -2.36746907798677   -0.51672782425596    1.75571447469968
H          -3.56576210090297    0.41237526613433    1.38878334985025
O           3.26532030541959    0.32281242543105   -0.99786512782958
H           3.02341620509254   -0.38563902591774   -0.39266183573203
H           2.71777574663511    0.18148474793760   -1.81115683273849
N          -1.02606046990081   -0.49040235466009    2.76887145407327
H          -1.10855882170656   -0.50225433368245    3.77805977960494
H          -0.69813054025146    0.43387273367918    2.48976014485479
H          -0.29139866621074   -1.13704454154112    2.50979668507101
