    26
        -50.46062586  Gyration_radius:  2.4666133058 Dipole_moment: 1.853
 S          -0.19062140215339   -0.26335118239595    1.34717659000772
O          -1.04980983943878   -0.91384410937315    0.36897992374720
O          -0.04016993408529    1.15841355644798    1.05875821612459
O           1.11795583010864   -0.92864700594319    1.40702810830161
O          -0.84337806684963   -0.37618616756864    2.74611839164331
H          -0.92189218960333   -1.36508491854242    2.85301582094306
H           1.89309608993070   -0.80146374462611    0.18646314483214
O           1.81295734894782    1.89791258469914   -0.70094586643758
H           1.23614312578557    2.03518552063981   -1.47069369221807
H           1.20308291319250    1.79228966871980    0.06166312935855
O          -0.26535986149291    1.76538631486966   -2.53354751702979
H          -0.64068024791867    2.07199746948812   -3.35993232554061
H          -0.92508465375925    1.97720801319467   -1.82450573124771
O           0.09553345911283   -0.88560846393934   -1.98127714153144
H          -0.45646607165011   -0.98003446049304   -1.16591042023944
H          -0.08721323369845    0.01548435974608   -2.31489329481917
O          -1.83828714047701    2.29493618136618   -0.48514748102803
H          -1.91142276204603    3.18102607390688   -0.12518138198707
H          -1.28612852754896    1.79235638311250    0.15612589366298
O           2.26003089323785   -0.58307461938039   -0.77325420923282
H           2.27438297666260    0.45687971024269   -0.78429100920373
H           1.42814747268895   -0.81698631573230   -1.39225309981704
N          -0.78093089883487   -2.94083156909552    2.35418121309754
H          -1.12453281382180   -2.72220940409725    1.42404144135740
H          -1.18333785120040   -3.81671961354878    2.66288100515032
H           0.22398535516449   -3.04503425185425    2.28540033221166
