    26
        -50.46307632  Gyration_radius:  2.38374078371 Dipole_moment: 7.331
 S          -0.63807522557581    0.71177103276805   -0.23991617475143
O          -0.56828859337555    1.55138866493882    0.93211440634489
O          -1.95089562477954    0.13027495692831   -0.46875049383620
O           0.30273844068134   -0.52270455181901   -0.07476970548397
O          -0.12790083668937    1.39250899380660   -1.44484191076306
H           0.16668353698580    0.31536656590147   -2.32934388921982
H           1.14855954021376   -0.32476486813662    0.50039569940202
O           2.27803555046466    0.05103423243172    1.35542790897037
H           2.38561904878621    0.99190922847236    1.10770388478429
H           1.75493510088755    0.04677792909556    2.19299304697755
O          -1.87779606785317   -1.20497000578197    1.88285132266843
H          -2.64902286859664   -0.94556795621996    2.39140791301935
H          -1.93313306158807   -0.71358551381929    1.04506402018207
O          -1.40907323319931   -2.10811680744443   -1.67075868184964
H          -1.02793192441929   -2.59564421403288   -0.93437994894142
H          -1.79989362123748   -1.30151370033928   -1.25035614785202
O           1.83718834855512    2.52422198346246    0.35092945144081
H           1.72985878412019    2.61186283021573   -0.59927728419638
H           0.93031435785337    2.38791112254626    0.68235964202961
O           0.26986562633693    0.13531243093267    3.09077136116455
H          -0.31485407447316   -0.61118499268205    2.88747009340049
H          -0.08323574510112    0.85316710582286    2.53986888593680
N           0.36805664969220   -0.62463711368699   -2.89014308230089
H          -0.32244441371920   -1.33369650941539   -2.46492749416825
H           1.32343181011168   -0.91711796956091   -2.70700630409181
H           0.20725848590798   -0.50000288438326   -3.88488650885978
