    26
        -50.46303485  Gyration_radius:  2.45521943886 Dipole_moment: 6.477
 S          -0.46941290171586    0.91719375284384    0.36096617478922
O          -1.88041574653074    0.89731321622771    0.04797105743678
O           0.25171217236032    2.00288915808469   -0.28239800101401
O           0.15341808253607   -0.42804581299377   -0.16944729451498
O          -0.20250875608734    0.84829996045382    1.80108609613534
H           0.73547329040877   -0.21910852193535    2.05531578313310
H           0.20903018359517   -0.40017188288287   -1.19192475234682
O           2.37033152275120    1.43223760289729   -1.77092406161377
H           1.66360352980106    1.68602121138073   -1.13863225906151
H           2.59782590507035    2.23628156233096   -2.24129753380259
O          -0.39997943446758   -2.81846212340660    1.25612741831409
H          -0.31234462674900   -2.73398657516198    0.30192651220885
H          -1.20201976014373   -2.27596644117666    1.47799750696914
O           0.39152987610534   -0.19663459246409   -2.67863274022136
H           1.24789256397786    0.26945268173900   -2.61563342811896
H          -0.27682580270865    0.50815725107802   -2.84418003472186
O          -1.28137361960497    1.87117462256626   -2.47027579780434
H          -0.71408120582656    2.18305371922670   -1.74176647783006
H          -2.06842265354057    1.55078769555131   -2.01653209291033
O          -2.31018468018611   -1.06500667638573    1.74237259128230
H          -2.26155672991395   -0.37780715217521    1.04177808798979
H          -2.15622441405103   -0.58291404016006    2.55808266207541
N           1.36683170045823   -1.11632829590457    2.13860351464306
H           1.70592845693356   -1.25481216238091    3.08508040040149
H           2.13424033474615   -1.02166995099837    1.47984073219575
H           0.70753270278689   -1.91194820638612    1.81449591639943
