    26
        -50.45221821  Gyration_radius:  2.67957529085 Dipole_moment: 4.352
 S           1.90416886390765   -0.22894091371388    0.35610952650712
O           1.65318915409612    0.54415196146493    1.53832759505022
O           1.56834489548536    0.44666523626765   -0.87853305608316
O           1.15572835643858   -1.56175097920284    0.40596895418832
O           3.37423295157098   -0.65923522176460    0.32852734365207
H           3.45447839304151   -1.13933469134024   -0.57133316741997
H           0.12119922830080   -1.45167829155415    0.15601491173510
O          -3.69838510664328    1.02388729683645   -0.38749591988577
H          -2.84420357766662    1.35225890629853   -0.70213051840087
H          -3.99617809269019    0.37782048432430   -1.03030552385525
O          -0.62484865018086    1.80207846020461    1.93606989266284
H          -0.48208354294991    2.54393157070341    2.52590973809363
H           0.23481460668935    1.32954090525565    1.87359480556676
O          -2.57075528675297   -0.20290858326153    1.81652557238330
H          -3.19942550253671    0.25062288757676    1.22626410609042
H          -1.94127126991756    0.48268836678704    2.08816252813198
O          -1.21543029357163   -1.16889893830859   -0.20222453479429
H          -1.16453877280649   -0.27069307832943   -0.60055371298051
H          -1.73286832214858   -1.02049968061220    0.63877581028173
O          -0.92146423181845    1.44569807232925   -0.77765032273990
H           0.01110036097849    1.27010531273418   -0.99896567157684
H          -0.90120398628714    1.76683966069036    0.14195796674081
N           3.08013686235231   -1.68598435375087   -2.00136668401245
H           3.74556938143094   -1.75271402819371   -2.76013383008948
H           2.42041884856967   -0.93750767915644   -2.19123453629876
H           2.56927473311794   -2.55614269227177   -1.93028127295273
