    26
        -50.44748634  Gyration_radius:  2.48603070275 Dipole_moment: 5.255
 S           0.65939394651237   -0.78769098150300   -0.30281623658909
O           0.52170529546905   -1.46315232406503   -1.55007629732107
O          -0.37256536791190   -1.10765610708469    0.66167304615859
O           0.70219787922331    0.72919231662845   -0.48245641996588
O           2.03172705158175   -1.11339799946966    0.31552089520142
H           2.13015544869536   -0.48777717389986    1.08998545337897
H          -0.15618044522779    1.26283902755803   -0.10347327477521
O          -0.67382175087943    0.44366873128497    2.70903019418360
H          -1.07762533442100    0.02137648529133    3.46898717856846
H          -0.63260010661871   -0.23703791827501    1.99139391137441
O          -3.13681769912253    0.60334341909697   -0.83273860138213
H          -3.42938996908278    0.98734420190431   -1.66100994163234
H          -2.81167822755935   -0.30291444781904   -1.05053077835249
O          -1.26221237004750    1.89549696919492    0.45226508928365
H          -1.27295490932985    1.58625745693257    1.37381872981655
H          -2.03277699073005    1.46075158936790   -0.00606453965278
O          -2.15175823140316   -1.80569878342251   -1.41529617696462
H          -2.13591439393529   -2.24531480178111   -0.56119251830644
H          -1.21681219294383   -1.73457843104436   -1.67482767661864
O           1.96961160376704    0.71790840275239    2.13815998299343
H           1.06659507266830    0.70745088622321    2.51412740775644
H           2.04332850823627    1.52576991309818    1.62274304538314
N           3.00073257948546   -0.02409236007225   -2.34208574903224
H           3.45323543242378   -0.55044211912851   -1.60360444749229
H           2.43613256884148   -0.68837444798766   -2.85907308719629
H           2.34829259231638    0.60672849582232   -1.89245916881061
