    26
        -50.46837089  Gyration_radius:  2.48015017274 Dipole_moment: 2.830
 S           1.83207701488477    1.15516145836037    0.60855987883197
O           1.77342633920124   -0.29776281158804    0.43989050573859
O           1.37044500458377    1.59907012804968    1.90754059055000
O           1.19678895441512    1.84112534878262   -0.49276755156374
O           3.38181982861015    1.50306434605636    0.55621643250948
H           3.39409237851746    2.35944363113683    0.96945360741760
H           0.07546620862543    1.63054525327133   -1.80026811231959
O          -1.16003862875285    1.05151617579231    1.87826218732248
H          -0.20475024520161    1.31272390767723    1.88233585905912
H          -1.61168753567691    1.68752253663254    2.43564738559983
O          -0.20276182510265   -1.52244758207369    1.79473893030066
H           0.63627674152782   -1.17382589813975    1.43665806476423
H          -0.69300711348607   -0.72963385667155    2.06496529195749
O          -0.53931193094160    1.13294272272915   -2.37506626665395
H          -1.34497947756053    1.00544529616440   -1.82221517718638
H           0.11160149734766   -0.20118663474666   -2.15385863082176
O          -2.32294873237904    0.37172627528852   -0.54444972763096
H          -1.95309812651106    0.69090914589305    0.29634803598042
H          -2.22583091646780   -0.58993834249119   -0.52510300062296
O          -1.41679747553183   -2.33128352936193   -0.35393576630134
H          -1.79607517318526   -3.20124375207497   -0.22848446893616
H          -0.97982949930821   -2.08380845322177    0.51501041773224
N           0.56987369039491   -1.10817683265255   -1.74987686723266
H          -0.18389568141622   -1.72324391986022   -1.38775771251007
H           1.14611594026041   -0.79363218877839   -0.91927596302844
H           1.14702878314894   -1.58501243416981   -2.43256793292450
