    26
        -50.44751099  Gyration_radius:  2.44997902805 Dipole_moment: 2.788
 S           0.94679816844984   -0.31878039642164   -1.40446953529459
O           2.06376704264345    0.50804816171774   -1.71460655284122
O          -0.34240170466089    0.32435607507014   -1.54671809877876
O           1.06651451313413   -0.84255872260650    0.05662060207659
O           0.98092733460852   -1.61360977299106   -2.20077642742634
H           0.31499999386769   -2.26466305350458   -1.75747767380202
H           1.31481116342733   -0.06230763017096    0.63610912803801
O          -0.55776249293049   -3.19187239102973   -0.98668119944769
H          -0.01282025857249   -3.90821049428551   -0.65354506363430
H          -0.94614980415795   -2.74627269270394   -0.17662381404082
O          -1.56219254135755   -2.05319771861352    1.13084369642870
H          -2.08096905808504   -1.29997474383565    0.80372733358712
H          -0.94211728055078   -1.64173704226436    1.75351602769483
O          -0.54605232038097    0.12072125617106    2.53744157264983
H           0.26846163545588    0.61185551677493    2.39261410791445
H          -1.20339378832846    0.50212275159372    1.94318255275570
O           1.73383149170766    1.32669557295551    1.27792627307613
H           1.32767740513100    1.98343536798280    0.62756149788140
H           2.68261686218659    1.37700644396358    1.14421147221573
O          -2.29856049534303    0.45224605366161    0.23623181526636
H          -3.09464996936315    0.69847039319413   -0.23673267519885
H          -1.58442207802260    0.40630159357918   -0.43420593897421
N           0.70373262453530    2.83313087908198   -0.60822976289126
H           1.47665795857446    3.03582588260821   -1.23039507286136
H           0.12864331027422    3.66267746831180   -0.52892123808344
H           0.16205227768879    2.10029123174119   -1.06060303626834
