    26
        -50.44858622  Gyration_radius:  2.48661951763 Dipole_moment: 2.682
 S          -0.56676147095635    0.61448345130564    0.66352264205777
O           0.37299325126662    0.74107934656487    1.74312674971683
O          -1.93429918778883    0.44215891241388    1.02948366073550
O          -0.13340325748215   -0.58836652657721   -0.22656130469523
O          -0.36873046599379    1.81586040108119   -0.26599587908860
H          -0.92774804548276    1.67728514066191   -1.12893213947811
H          -0.73770961640904   -1.37603197000168    0.07987130039028
O           2.65268980016756    0.11790445713157    0.43761271221775
H           1.92838509952230    0.42110358744796    1.01347799590666
H           2.46419121364461   -0.80056781947489    0.23486599964221
O          -1.51800912171251    1.39087034080909   -2.45392369038343
H          -1.49833534887834    2.16806228668563   -3.01752783523482
H          -0.79935763820730    0.77254826270699   -2.79441083445234
O           0.54403202407323   -0.08139915137527   -2.96148207636250
H           0.44270412083709   -0.69141157388205   -2.22291653284407
H           1.23074376552938    0.56407908986398   -2.66675944327660
O          -1.68061695641684   -2.27394465421164    0.77288736677666
H          -1.28680298937570   -2.22808199494647    1.69257238017670
H          -2.43121546345322   -1.66780741226235    0.79897134158493
O           2.11014965917127    1.68253189357695   -1.71104144705545
H           1.44833134626524    2.20644862367413   -1.24838479443539
H           2.53349530197534    1.14745695575282   -1.01064823006991
N          -0.56835516827982   -1.65684118942612    3.09949216358816
H          -1.26539604574136   -1.45778241852352    3.80657309225145
H          -0.18964195258529   -0.76287633988860    2.79247847873235
H           0.17866714631392   -2.17676170910431    3.54364831363068
