    26
        -50.44858628  Gyration_radius:  2.48655348247 Dipole_moment: 2.680
 S          -0.64779709552405    0.15412382543050    0.83443210003580
O           0.31869942560001    0.53535354289038    1.82703297049881
O          -1.69970158652735   -0.70471229688297    1.26988585977818
O           0.10338351876176   -0.53524418516709   -0.34345375458758
O          -1.18379180743593    1.43778037154926    0.19298051591804
H          -1.77134906483948    1.19212384626267   -0.62608393386233
H          -0.01667671686489   -1.55336367880044   -0.17456442635852
O          -0.31207756687327   -2.89045956728933    0.37362910223651
H          -1.23468892328441   -2.72715078685881    0.60521479321460
H           0.18353362592706   -2.81282624339787    1.24042243813705
O          -2.40591920009877    0.87885308157901   -1.92416109968196
H          -2.84047449741263    1.65161649848984   -2.29301663069065
H          -1.56395725671069    0.74136454271705   -2.45982410015314
O          -0.03780112833728    0.66904857097145   -2.93669346297736
H           0.28294745430116   -0.02651627177664   -2.35259179070098
H           0.32976039610115    1.50576010808723   -2.56266702847500
O           2.35038545609086    1.29162933184166    0.21760177416071
H           1.68784131572604    1.11604471382972    0.90925626779150
H           2.55764833845777    0.44074939975530   -0.17389917099746
O           0.77757356681460    2.73551844627072   -1.45598986202490
H           0.05038054116351    2.79845320897686   -0.82849196317393
H           1.51724761705311    2.36049852607841   -0.93804010978587
N           0.81950675919163   -2.20529867451065    2.67173165144891
H           0.69385063892455   -1.20254418889042    2.54698338389415
H           1.78844257598640   -2.37091453006242    2.91537954918978
H           0.25303361381717   -2.47988761109048    3.46492691716878
