    26
        -50.46657222  Gyration_radius:  2.39531949779 Dipole_moment: 4.966
 S          -1.41349311740063   -0.18110056683318    0.39691260337299
O          -2.64309797806056   -0.59717980950312   -0.22611112350483
O          -0.56945678548594    0.59931803092922   -0.52289824614575
O          -0.55774417245430   -1.50722758182602    0.68825779346763
O          -1.52891420165622    0.45090040933127    1.68582910920412
H          -0.29456682930628    1.35215625291887    2.38442451695801
H          -0.34145759018103   -1.87507712338321   -0.20616778553660
O           0.58811949265144    1.78182782785754    2.47780214120736
H           1.37376532139555    0.61834955156090    1.98656036933284
H           0.58870125477341    2.44876002475440    1.75694694529740
O           0.08331615487055   -2.32892020901326   -1.70861057855016
H          -0.18148187243815   -3.23025300190655   -1.90120152008692
H          -0.57412378709629   -1.74270341380310   -2.19145380095034
O           0.08320991122430    3.07340501782294    0.20277235168802
H          -0.16882986374911    2.19097639867115   -0.14385933148055
H          -0.72322655536929    3.59072987835702    0.22671743075436
O          -1.73780227961826   -0.75095598036432   -2.65385714954415
H          -1.35703895033981    0.12628518342011   -2.74812290303350
H          -2.23565129254493   -0.71297788688814   -1.79955099732958
O           1.88289499082421   -0.20835144760840   -1.05798827008139
H           1.68897211573163   -1.06606929785245   -1.45419911886676
H           1.00792585583210    0.23558821336829   -1.00616511415145
N           1.71303889354918   -0.34260638628807    1.57425691441905
H           2.02555932016863   -0.22613700269560    0.56955563369143
H           0.86166383279684   -0.93119505650620    1.51755163083560
H           2.42971814187005   -0.76754204449139    2.15259851903117
