    26
        -50.46400425  Gyration_radius:  2.43673767842 Dipole_moment: 6.300
 S          -2.21348370957828    0.24427939007192    0.35013554933273
O          -2.27041863876733    1.04890185689005    1.54898887978182
O          -1.36575786421983   -0.94024719994830    0.50544527722507
O          -1.88956783545580    0.99785081541856   -0.83826295569146
O          -3.67284498529532   -0.35174953513466    0.13332532390477
H          -4.19224923624145    0.44407193111170    0.09771264115951
H          -0.78877555076465    0.79174094210997   -2.10921399860300
O           0.59198064022365   -1.03263808623630    2.18352495479496
H          -0.21627298111265   -0.99289246978061    1.60046629435718
H           0.36274303022321   -1.61809608739660    2.90624535109995
O           0.27452249706846    1.66768856331793    1.42623106780220
H          -0.70392760583169    1.60505489403206    1.42100328194492
H           0.55824171366355    0.92637161925792    1.97685567052813
O           0.00959658285151    0.56096857745499   -2.62837040186544
H           0.01755693983343   -1.02431381971464   -2.14004573857190
H           0.72713955930708    1.01470380609274   -2.16439962690490
O           0.06384177830334   -1.81236385026699   -1.53290035638700
H          -0.61721393606015   -1.62263656757150   -0.84905715042348
H           1.24521419428284   -1.49694833815282   -0.76733696176196
O           1.81475058820557    1.53911864361337   -0.67584576096932
H           1.14274071050695    1.65396983761930    0.05160804160805
H           2.30758018746627    2.35976156506291   -0.70844348435751
N           2.05201623921069   -1.09937814924146   -0.10190159454902
H           1.67624676167789   -1.15595126910686    0.86505302874092
H           2.16507223392733   -0.09710163900540   -0.35077099841197
H           2.92126866655691   -1.61016543050799   -0.20004632378359
