    26
        -50.45597501  Gyration_radius:  2.46903841727 Dipole_moment: 2.848
 S          -0.33934086806104    0.87201543143638    1.45975039645537
O           0.40847828358466   -0.33011301666724    1.17369375898816
O          -1.68331133644293    0.62562348966338    1.90096619324643
O          -0.34651415806227    1.76801422904294    0.21051898459714
O           0.40146049189570    1.71402522065738    2.48548133981644
H           1.37605179836636    1.77774474943074    2.16041829986316
H          -0.84969112698770    1.30732716540384   -0.57093937612461
O          -0.62088866649211   -2.51812604288881   -0.02277966602868
H          -0.15921554651227   -1.88414036604748    0.55399706475077
H          -1.55400358202018   -2.27121093417816    0.04126317789339
O          -1.53442882818919    0.49757419542895   -1.60138993269088
H          -2.16686765422557   -0.04593799436641   -1.09346332882592
H          -0.85682114574948   -0.13114833587400   -1.94881037123037
O           0.21798825000441   -1.39529940960452   -2.26538627788385
H           0.02326963632524   -1.95930556593974   -3.01518191043909
H          -0.00598682236293   -1.92173855381940   -1.45573421219535
O          -2.94574008218946   -0.95477125991183    0.22453160172444
H          -2.53301520003123   -0.40885798963544    0.93335855640525
H          -3.89005599239608   -0.93920491766486    0.39073012127559
O           2.76977519036185    1.67383357772506    1.60823494475415
H           2.65296046978936    1.37786425930411    0.65098195476362
H           3.17612165930864    0.93314435158320    2.06473119314148
N           2.26006399026039    0.68329018142574   -0.77692006200963
H           1.60355360581430    0.01978974018711   -0.37376771614704
H           2.87529346474499    0.17573358654462   -1.40006885119364
H           1.72086415922195    1.33387420876590   -1.33421585285521
