    26
        -50.45063068  Gyration_radius:  2.5012742376 Dipole_moment: 1.708
 S          -1.19051189839175    0.42816278702414    0.09361138549087
O          -1.19713903949264    0.48912805585323    1.52470439224117
O          -0.36929344742871   -0.61597598237334   -0.46026571837270
O          -0.75559133513558    1.78504802070290   -0.49495214069232
O          -2.62478117245488    0.29727313536577   -0.41644952278315
H          -2.55893223913515    0.38393723339415   -1.42415359888673
H           0.25205441500407    1.82274358076443   -0.64512198919871
O          -0.85895714432336   -1.78609418626822    3.05443462611430
H          -1.13325136596751   -1.54139522556659    3.94014528319956
H          -1.03916542982200   -1.01303395342540    2.49615291003706
O          -2.20303979951932    0.45515898782995   -2.93273736483182
H          -2.49459657824744   -0.33959814312564   -3.38620083354241
H          -1.21772595645465    0.47234605660897   -3.01762698294894
O           0.43840661300020    0.18902846557829   -2.85026438400643
H           0.29218578486265   -0.28969830576798   -2.01224331405486
H           1.08188576300128    0.87084674431865   -2.63595581456430
O           1.59974450011015    0.72177811314447    1.60631484272126
H           1.77823371214814   -0.25948396104038    1.57245653842541
H           0.65709004997278    0.77993432027912    1.80985997565795
O           1.76880973295811    1.78412072123912   -0.71770785220335
H           1.84799156390750    1.31698204787570    0.17753476439140
H           2.13855276280679    2.66071644548201   -0.58889569252420
N           1.58320262111130   -1.91751486940376    1.37828961347891
H           0.93354221109161   -2.15862935344756    2.12246133131440
H           2.24312452365092   -2.67788614387031    1.27639400060511
H           1.02816114272700   -1.85789459121137    0.53021555492584
