    26
        -50.46354665  Gyration_radius:  2.39752220405 Dipole_moment: 5.885
 S          -1.11716265625284    0.51615754747466    1.30900558556222
O          -1.03355423607830    0.93117382169413   -0.10022350581137
O          -1.18307987258373    1.66723970747160    2.18235128769297
O           0.05124753874772   -0.32038914965222    1.64798074618346
O          -2.38010678347785   -0.34516729701558    1.46469610315998
H          -2.27496025948972   -1.12537310573949    0.82396835834734
H           1.16076705147664    0.76102558970846    2.00462857568993
O           1.53434314879537   -0.61210859601829   -1.97291975083310
H           1.96646966113133   -0.96652959016418   -2.75130039452076
H           0.57603153680816   -0.56688910399484   -2.17843341550520
O          -1.15655648060111   -0.40770525237281   -2.29175595174357
H          -1.16401354104939    0.11438305319558   -1.44501013584201
H          -1.59866202001597    0.14062623176129   -2.94149786532521
O           0.70153219356855   -2.38481242035430    0.10116618722865
H           0.55474653912320   -1.71768718880116    0.79823237908786
H           1.13128569017144   -1.89758565066779   -0.61668765106714
O          -1.93819852167229   -2.19452536592868   -0.26292735188245
H          -1.00589260026634   -2.47224270826205   -0.09644260158370
H          -1.90843079510608   -1.74964800240054   -1.12214274044210
O           1.37176013022318    1.85774288046510   -0.63809198093548
H           0.41321311595200    1.65511821772630   -0.53896033714059
H           1.72532121271761    1.06531132817294   -1.07272057870615
N           1.40014181761137    1.79723178949708    1.96755475487783
H           2.13008492334170    2.10148637727073    2.60253354368149
H           0.44572591608581    2.17218634373660    2.19377651046330
H           1.59794732083341    1.98098053317267    0.93322022932864
