    26
        -50.46444741  Gyration_radius:  2.49804805424 Dipole_moment: 4.343
 S           0.42164054083605    0.04992821460528    0.99107831589744
O           1.78342751290513   -0.33241300948916    0.61927916437335
O          -0.40627956230717   -1.10567958058959    1.27093425164957
O          -0.17500071086357    0.87380401081087   -0.07565166263899
O           0.47561323805090    0.89783939415289    2.27782068854018
H           1.11260312888551    1.65746627373712    2.13611865183470
H          -0.62224905935967   -0.14495492647576   -1.17678532096666
O           1.10466595014874   -2.46859028365332   -0.74236566389550
H           0.73238900986591   -3.00639697054859   -0.03839409668614
H           1.52073023915966   -1.71036378625857   -0.26871407829988
O          -2.82003249495491    1.03730863046930   -1.06061856638550
H          -3.17921461650002    0.32812570460246   -0.51722719431156
H          -2.00879448368062    1.31727503354923   -0.61929122567621
O          -2.72855044061628   -1.56676444649921    0.18536438465338
H          -1.91617303578925   -1.36049615376209    0.71111644951095
H          -3.17028555211004   -2.28329807242075    0.64265416736470
O           2.29536571416175    1.90227559650250   -0.70221707359627
H           2.32458778814948    0.99775827177381   -0.33141072676435
H           1.36479979473599    2.02903844079042   -0.92065747383778
O           2.23630341740430    2.73568441799924    1.80036839726256
H           3.06432784995774    2.47065972393105    2.20664352517846
H           2.35036789949056    2.60477878286968    0.82488366489615
N          -0.88225188024157   -1.02665841649323   -1.71770475994518
H          -0.10260976599023   -1.71500435693905   -1.51284438049650
H          -1.01129279683865   -0.82735537618675   -2.70455717339634
H          -1.76408769217303   -1.35396712589630   -1.27782227226202
