    26
        -50.47508729  Gyration_radius:  2.41603483577 Dipole_moment: 4.303
 S           0.82810169114027   -0.63947386865633    1.41953551316002
O           0.65703005407532    0.74969990410652    0.99202511000942
O           2.05076519119842   -1.20638394291344    0.90531575292198
O          -0.34951369808053   -1.42844611412156    1.01781922688106
O           0.88352578143654   -0.64745340339056    2.97003554331219
H          -0.02705562741373   -0.36999140722455    3.21242336839514
H          -0.56098087931568   -1.41212677584102   -0.50716677535559
O          -1.69293931204671    1.81145642108341    0.79287401354685
H          -1.59358945092364    2.75212115159628    0.95111968572039
H          -0.78462384444311    1.42342672022632    0.88545481922905
O           1.27758352773479    1.58199843445454   -1.48487530658076
H           1.78064658116242    0.82943898927431   -1.81870468320901
H           1.18212304687760    1.40913843586077   -0.52894779538263
O           2.14051108656516   -1.12422310143537   -1.68866408748803
H           2.17203632016620   -1.14156407882443   -0.69504782186383
H           2.88448176259132   -1.65370104462864   -1.98057246306680
O          -1.69938624385847   -0.10133577752327    2.88695221745722
H          -1.94893095439627    0.68608321679765    2.38025782222992
H          -1.57223803501976   -0.79290261327692    2.21794241001682
O          -1.32456213708791    1.18725137222402   -1.86156471737846
H          -0.39798905638435    1.52695772547162   -1.87842553418846
H          -1.66880556553200    1.44305473534770   -0.98417384243613
N          -0.57156897695486   -1.28024234777720   -1.56479150882402
H          -1.11479772678886   -2.00545664576891   -2.01974225602052
H           0.42279892711813   -1.30638093955502   -1.85985584114825
H          -0.97262246180444   -0.29094504549069   -1.75922283991785
