    26
        -50.47508731  Gyration_radius:  2.41601087145 Dipole_moment: 4.304
 S           1.30236988658449    0.13468250967570    1.18106339529295
O           0.93520301962497   -0.77783650848067    2.23614156816103
O           0.22129687404781    1.07441507847000    0.88117467780746
O           1.69022450746087   -0.58047773912737   -0.04718343910200
O           2.52969365734012    0.96573756105278    1.63963222836439
H           2.77279768144962    1.44818857779650    0.81922075134589
H           0.51445394699683   -1.37039766370417   -0.65019163459007
O          -1.19677345788925   -2.13694161418656    1.64318805177893
H          -1.29990142945043   -2.83337397994275    2.29388458131204
H          -0.40291603946644   -1.61348845622774    1.93364228294829
O          -1.85016948999045    0.14457238980286   -1.78444449837352
H          -2.26286171890218    0.29278769742559   -0.90015394808813
H          -1.21725033656275    0.88053268443637   -1.89166001314241
O          -0.00293850102439    2.15764132049161   -1.45679409126725
H          -0.42705067416131    3.00920426975897   -1.33552984777809
H           0.08367457164272    1.76607500366749   -0.54945393459698
O          -2.35797689245301    0.32905831945797    0.81871516427576
H          -2.31475380095355   -0.54297764609029    1.22929180781283
H          -1.47821732941486    0.72023940908561    0.97937966868062
O           2.73977171165383    1.71583248933451   -0.88436288578903
H           1.95094639471073    2.12524907874492   -1.27068104762968
H           2.56518237458473    0.76198017290824   -0.92453342185000
N          -0.39947695357259   -1.83650068481363   -0.93935563325579
H          -0.84414266540246   -2.15198202472717   -0.05664084098110
H          -0.23229694317550   -2.61207941514765   -1.57067526729589
H          -1.01888837367758   -1.07014083966827   -1.39367367402453
