    26
        -50.45046615  Gyration_radius:  2.6156907853 Dipole_moment: 5.251
 S          -0.08366009754914   -0.03083357674569    1.36757404494097
O          -0.78580364926218   -0.73418436331487    0.31808811233856
O          -0.64958907755430    1.23342205136695    1.71444020017076
O           1.39352264613957    0.13433354193351    0.93850413517726
O           0.02699434330495   -0.91039892336135    2.60430900964710
H           0.53579878399464   -1.76209813419455    2.35680350474739
H           1.45655847153911    0.80047201574043    0.17988923875933
O          -2.35811223731681    2.44740308511075   -1.40913818069635
H          -1.84021844847376    1.72991512515487   -1.83598951521223
H          -2.97258592233456    2.01251134621504   -0.81530909186820
O           1.17756866996096   -3.07402426342076    1.95263888820840
H           0.72913756429447   -3.78774237736252    2.41183265102543
H           0.96594130475391   -3.17760121262487    0.97412734837690
O           1.45361689600799    1.85895682538977   -0.94227217166828
H           0.77288589945353    2.53535885622540   -0.58759986426313
H           2.29184785301791    2.32283131101213   -0.98893866111395
O          -0.69832310472181    0.44307975998977   -2.11774542242112
H          -0.81050193116564   -0.05223121606489   -1.28741966344690
H           0.15214528705270    0.89239006846917   -2.03969739975700
O          -0.32840741286921    3.36730651514611    0.07844853101773
H          -0.50589926937159    2.80531404253032    0.85192603642624
H          -1.11045367457346    3.24107001690981   -0.50616845596440
N           0.41298658146404   -3.15520392822429   -0.56958761148353
H          -0.15394740671423   -2.31733096522588   -0.43706092452567
H          -0.18534441559094   -3.88082521082024   -0.94380866282318
H           1.11384231650179   -2.94189039985897   -1.26784605562251
