    26
        -50.46546401  Gyration_radius:  2.43798010821 Dipole_moment: 6.714
 S          -0.04687196515455    0.78516531185632    1.53302182730220
O           1.04973571897788    0.15167089374750    2.24060534163125
O          -1.13643435947915   -0.15317770143405    1.27428705001715
O           0.42125869472725    1.39059382984582    0.27475880146021
O          -0.59395042000024    1.93824093295878    2.40263061584066
H          -1.19720016419894    2.40359796551533    1.76276002281733
H           1.27610008691586    0.63672074566894   -0.59018684275992
O          -0.27395364016020   -1.17711687579311   -2.34590212478974
H          -0.39147253529665   -1.66232986765099   -1.48054132797343
H          -0.59478070577202   -1.76617030758953   -3.02946872052843
O          -0.30801236613894   -2.31617393207888    0.00428893284033
H          -0.72525887233244   -1.61577838392670    0.55195565984520
H           0.59602282845959   -2.38623434314021    0.33956510007616
O          -2.22360477813031    2.87596960808728    0.60322421597072
H          -2.11726148547944    2.22778249078390   -0.12883306175743
H          -3.12329627684890    2.76071250551549    0.91870624611710
O          -2.16765285593894    0.72269693839468   -0.99890001818891
H          -1.54809719650678    0.39703317045476   -1.66001150962003
H          -1.88759667149268    0.30123874966578   -0.16075078083290
O           2.28570794651130   -1.66056417575446    0.90606529929382
H           2.97373236052639   -2.02771003604483    1.46322180438330
H           1.81642706337449   -0.98015676580205    1.47257343310461
N           1.87284538086348   -0.04896396987757   -1.21814924425525
H           2.60466773036751    0.44803703899242   -1.71184077746985
H           1.18894506000776   -0.49093488498529   -1.86615394857177
H           2.25000140219818   -0.75414893742347   -0.55692601395326
