    26
        -50.45755043  Gyration_radius:  2.53750858348 Dipole_moment: 10.370
 S          -0.60899411236342   -0.59848963687271    0.74286014008752
O          -0.85070508335121   -0.80750104766117   -0.68189476584005
O          -1.23611749275509    0.58311451005649    1.26151251298795
O           0.96069147792971   -0.44851476414745    0.89188157898175
O          -0.88931002300116   -1.81638614930608    1.51164023130230
H           0.13938257041672   -2.66028534440881    1.13376973915995
H           1.20221206284100    0.44201499399291    0.51476755376237
O           0.37266906077134   -2.79157557264001   -1.79938384881687
H          -0.08712550024352   -1.96993689660914   -1.47810402275085
H          -0.27673896383355   -3.26077758127708   -2.32611370995657
O          -2.15613367823387    2.81588980592460   -0.39733356469650
H          -1.63810833453997    2.49026213495216   -1.16064202603284
H          -2.33764757335362    2.02699891895342    0.12697994138839
O           1.55580055673486    1.90140523541369   -0.03056450471832
H           2.42850620529794    2.21731117297456    0.20927732516674
H           0.89785083749810    2.45493875293256    0.50905171524195
O          -0.21105348366418    3.10075516780858    1.39797378391348
H          -0.90223250720775    3.33941190011082    0.73804377140711
H          -0.56073337208553    2.27452093788785    1.76753492309994
O          -0.42398546743542    1.50185863627528   -2.03415831357818
H           0.40936776982605    1.74813868103642   -1.61554536338566
H          -0.65629294110799    0.63596029060006   -1.65542367988518
N           1.03093694881381   -3.20775219426045    0.70800265876356
H           1.15005615075654   -4.13522336562307    1.10173365340318
H           1.83225331868766   -2.61121183000108    0.90110238712330
H           0.85545157360245   -3.22492678611064   -0.33696811612550
