    26
        -50.45617905  Gyration_radius:  2.50848763549 Dipole_moment: 0.798
 S           0.84077789344753   -0.33377445042941   -1.25380550616473
O          -0.58698229782182   -0.09860800323864   -1.34397320215741
O           1.22541893579344   -1.67843045964427   -1.56084545787520
O           1.31195391700067    0.04820138575078    0.15829642739194
O           1.58905406726748    0.63288864115203   -2.15156022560166
H           1.43410738780360    1.59901767002245   -1.80942343079171
H           0.99897317179130   -0.67097916757089    0.84991303917929
O           0.42589837068452   -1.69562986397806    1.71826235131746
H           0.66521883372214   -2.54866364070985    1.28816006328849
H          -0.53096675757992   -1.57759567004347    1.53550511128770
O           1.10651557830579    2.96770424311824   -1.36993144498320
H           0.14669206243877    2.87124322724602   -1.05805125651019
H           1.08714451341199    3.55127339931900   -2.13181829211669
O           0.98077358501267   -3.73418149309314    0.10810114325410
H           1.04078708368109   -3.08839860037791   -0.62495837589699
H           1.81068950354785   -4.21421310259767    0.10778781876220
O          -1.97034818655057   -1.17154196342056    0.65534370897042
H          -1.55190714977030   -0.75074238832359   -0.12625593652033
H          -2.51349727897523   -1.88562244044092    0.31690445180440
O          -1.30650549396510    2.43533400231966   -0.68977004574090
H          -1.29193759316865    2.28724894771868    0.28704155205801
H          -1.27015211397702    1.53824765746114   -1.06167850280132
N          -0.98047547345114    1.54745078462514    1.83669416121642
H          -0.00179680042974    1.29045675628747    1.77711514710552
H          -1.52278311041901    0.69128428131960    1.80886887427580
H          -1.13665264779443    1.98803025746616    2.73407783728386
