    26
        -50.45589948  Gyration_radius:  2.46742989753 Dipole_moment: 1.995
 S          -0.81897782518051    0.44570951936279    0.32764094325114
O          -0.81273926654609    1.53474978125891   -0.64660729760107
O          -0.21679412060792    0.82196799973139    1.58606402957825
O          -0.14780361886110   -0.74080866571765   -0.24868482650055
O          -2.29795369394791    0.07382237746094    0.53262915535821
H          -2.32731474319323   -0.75633410698874    1.09807423741525
H           0.49673539387888   -0.60190455906402   -1.50983231251351
O           0.91748872359688   -0.27369449656341   -2.42768586052280
H           1.41100993206352    0.61483759716794   -2.10289359882457
H           0.09574908705064    0.06462979855037   -2.91963027228191
O          -1.27830259011386    0.84254608401436   -3.11708582997734
H          -1.31486720361414    1.64121737079603   -3.64703113980074
H          -1.30714497979243    1.13320747034136   -2.17216689640057
O           2.32952485155359    1.10691228906794    1.05115979026743
H           1.38644960013303    0.96598157689063    1.30558604309922
H           2.67072212047517    1.76447479727534    1.66039039048510
O          -2.23229986396038   -2.13548341222871    1.84842704603632
H          -2.28882047707564   -2.81802644702204    1.17616380353268
H          -1.28304043845277   -2.12999048976456    2.15994494708967
O           1.69857581207394    1.85986560177401   -1.40623365620339
H           2.15536174950622    1.60967061533887   -0.56872200410988
H           0.77337204719223    2.02724691148656   -1.12342621045773
N           0.35750718346133   -1.89295852942064    2.32375163599861
H           0.40951155537057   -1.02661260767519    2.84693264987345
H           0.50789165006029   -1.63831027716227    1.35049542626204
H           1.11615909517740   -2.49271617867438    2.62273979647948
