    26
        -50.45755052  Gyration_radius:  2.53688054919 Dipole_moment: 10.382
 S          -0.09352338488407    0.30120826857091   -1.08797180484670
O          -1.06041638980991   -0.72670796776229   -1.34696966692916
O           1.18921678373731   -0.21229630376280   -0.61612468591529
O          -0.63610519753098    1.22870687321756    0.07550490651678
O           0.08948428678551    1.24805618438604   -2.19390118740027
H           0.65869349294453    2.34257313264663   -1.57009789399008
H          -0.91570873622876    0.62507551067064    0.81773580427755
O          -0.89554821720344   -3.44459106786518   -0.27259871098077
H          -0.79897029093415   -2.81911335189628   -1.00051815849466
H          -0.21839299193555   -3.17114110669209    0.37833071016957
O          -1.42366458309918   -0.36656750023834    1.96312552984174
H          -1.98057937777629    0.04126168569461    2.62831954144884
H          -2.03209911603457   -0.96720415490854    1.41592702121533
O           2.95957959954792    1.53668217900309    0.08339661288097
H           3.78932087366555    1.27127153526753   -0.31714303997806
H           2.32548353657744    0.79174739162363   -0.09733039491618
O           0.78889109956489   -2.04317947437934    1.34171820761581
H           0.14135556109358   -1.54567096967894    1.85511663065442
H           1.05517826433903   -1.44865297553285    0.61873220374646
O          -2.87165951811373   -1.78736099739663    0.38657779953687
H          -2.35273077461435   -2.62048186810099    0.30261783482393
H          -2.59793332107692   -1.29799884119959   -0.40531913107440
N           1.12005273464566    3.12968922431000   -0.90344902164170
H           1.34013936082305    3.98732551622896   -1.39886015550931
H           1.97776503866084    2.65994133019463   -0.49549143543057
H           0.44217129677318    3.28742775752798   -0.16132750558355
