    26
        -50.44993133  Gyration_radius:  2.44737611913 Dipole_moment: 1.836
 S           1.30283309185834   -0.92026056098930   -0.39472206047926
O           0.85892788267018    0.22115915923499   -1.17940759439564
O           1.18989230416998   -2.17433157795804   -1.06656528170816
O           0.41663202195156   -0.96621087851841    0.89581450521893
O           2.68074689563458   -0.66454600981010    0.13661270611334
H           2.74007879897212    0.41557843869519    0.37933906960830
H          -0.38192022269296   -1.51494377127062    0.65670315821328
O           2.62245323852719    1.73859717962798    0.61181383723716
H           1.91915818975654    1.78046139779291    1.38315597894335
H           2.16176750949798    2.05413274187047   -0.17315606673544
O          -1.13029410464007   -1.04339523217836   -2.39035970896437
H          -0.40363508202487   -0.47857045565626   -2.05139181843162
H          -0.73054464642429   -1.59310869192060   -3.06784099241162
O          -1.44792760170074   -2.44313599798716   -0.12420982460680
H          -1.41814281244636   -2.01431598102463   -1.01218048528200
H          -0.93324667436825   -3.24934520154514   -0.21612763123974
O          -2.93808360365561    0.12486491894862   -0.46498267721523
H          -2.87387631889652   -0.68214520625942    0.05271061953590
H          -2.63445859993189   -0.10008062359310   -1.35178328239894
O          -0.90878331926219    1.94220988146442    0.06941964163927
H          -0.28192921371239    1.42671602372851   -0.45935427273346
H          -1.75743706321878    1.47828811357652   -0.02343559987780
N           0.72421318723664    1.70273754787759    2.33644990345661
H           0.64937242951942    2.29989717829973    3.14855933491863
H           0.61086633353750    0.73768533197112    2.61975568224693
H          -0.03666259033590    1.92206226558496    1.68518283934138
