    26
        -50.44993134  Gyration_radius:  2.44713274293 Dipole_moment: 1.822
 S          -0.65533065094688    1.29961169620121    0.76482301643310
O          -2.04166613620324    1.38644994936203    1.09247044699886
O          -0.37873303546581    1.26499494971542   -0.66279113851287
O          -0.08160523489462   -0.02277404268381    1.37786708666302
O           0.16669699146358    2.37110046512272    1.41424716808058
H           1.14643276333668    2.39002258457938    0.89271014212929
H          -0.81705416901362   -0.69373675226327    1.31036219362694
O          -2.51466460576786   -0.16019561167950   -1.31717452647658
H          -1.72109988442916    0.40725881611622   -1.21528925594245
H          -3.26256640139996    0.44030213306703   -1.28694737321770
O          -0.83345419699138   -2.50801012244318   -1.36961714469638
H          -1.48651759211820   -1.89458266281837   -1.72515159877238
H          -1.10711492516119   -2.69742614757481   -0.46813944108067
O           1.30815448561790   -0.74916035476050   -1.52348626969949
H           0.71621703375419   -1.51872076311757   -1.56377035295550
H           0.72795313614444    0.00405070665728   -1.33785188934651
O          -2.23375649700356   -1.41944022438634    1.03467815277106
H          -2.78552867698160   -0.95561864865504    1.67018768037824
H          -2.45487117611217   -1.01978186915421    0.16019879235443
O           2.26122251894134    2.26499590038464    0.14836085020699
H           2.61707609103393    1.31787343954960    0.41228949777945
H           1.91307652466185    2.16880555469823   -0.74467810907629
N           2.88972022605868   -0.15566620429930    0.71328602222271
H           2.48412511980992   -0.58557190752719   -0.12463651736629
H           2.31536951933265   -0.42748185497618    1.50107605494263
H           3.82791880230009   -0.50729902910952    0.84697651253922
