    26
        -50.45702251  Gyration_radius:  2.55374399704 Dipole_moment: 1.236
 S          -0.82878455328461    1.10486841936191   -0.73013582780553
O           0.46523086292865    1.14479053894288   -1.37704154088578
O          -0.69753019730002    1.11090392193619    0.72622332853441
O          -1.62570455702052   -0.03746202782099   -1.18217273968820
O          -1.61322075413854    2.40171517762566   -1.09149409699602
H          -1.86733205422465    2.25264268167696   -2.02382963474055
H          -1.08599521547326   -1.53808486701504   -0.64032661383112
O          -0.89873865291985   -1.03427024403898    2.01501059356870
H          -0.92634726288773   -0.11145958366396    1.55895514181774
H          -0.01947589810424   -1.03472492162161    2.57723078035495
O           1.29302915273218   -0.82751836594548    3.24587288108532
H           1.21189437998127   -0.24856998030961    4.00580522604626
H           1.73965791630256   -0.28360233206326    2.50963533893579
O           1.68810281782417   -1.14835320421594   -1.18937435876858
H           1.93841001582166   -1.44278268047321   -2.06671512328741
H           1.25935692904268   -0.26418689104065   -1.31188209894390
O          -2.34340890287387    1.24216300374596   -3.34955815503581
H          -2.10792531501400    0.53787201807828   -2.71181792726869
H          -3.28654052137734    1.16163378938988   -3.50961141204052
O          -0.54903436202989   -2.20561651876195   -0.15597962732963
H          -0.75070013942085   -1.67483381193798    1.18006314822890
H           0.37108297439969   -2.02110855931089   -0.44618489113747
N           2.13389788074873    0.59963829633322    1.24022632589744
H           2.82442826101612    1.33777462171540    1.28925807826150
H           1.25622871039466    1.01731324039393    0.93311024423846
H           2.41941845489454   -0.03874172098516    0.50473297080278
