    26
        -50.45836896  Gyration_radius:  2.49320101213 Dipole_moment: 3.016
 S          -0.67527436549248    0.37963273085595    0.68846448177622
O          -1.62032232200758    0.68085800324485   -0.38073535951747
O           0.60767956900923    1.03439404534045    0.45293104339180
O          -0.49445510999399   -1.07501438612671    0.82025110193023
O          -1.29015111047782    0.91830256500105    1.98518983716003
H          -0.65864345225287    0.73045416860391    2.74626642880257
H          -0.22816619618806   -1.67925774264529   -0.42264916971358
O          -0.03124400432717   -1.92494733936623   -1.44488294642268
H          -0.92422868563593   -1.71900334351899   -1.90877634926653
H           0.62221215088165   -1.14631431121739   -1.73383800163167
O          -2.22413306616694   -0.99679634402326   -2.34672275692647
H          -2.28036786191475   -0.42944416538493   -1.54834854222844
H          -2.05025906957822   -0.38729385238756   -3.07241619999863
O          -0.82908090523475    1.57173935504535   -2.73768180028942
H          -1.15995632997942    1.37330056678210   -1.83181196551793
H          -0.79368774810965    2.52644677923135   -2.80656244031725
O           0.43571744150551    0.54132959381174    3.85111451575554
H           1.11305266384502   -0.00028842294918    3.35285466162786
H           0.83837221825057    1.39707847986788    4.01396375871323
O           1.29628306842552    0.14775675921872   -1.90937584455651
H           1.20535901822509    0.54297695617442   -1.00861753256172
H           0.69127596812961    0.68298579926351   -2.46235083802553
N           2.04949178133193   -0.70059920297614    2.17537777994740
H           1.78285913081218   -0.03813163339299    1.44888554629588
H           1.57094892434960   -1.56722873482075    1.96108230467423
H           3.04671827260747   -0.86293632364291    2.11838829690838
