    26
        -50.46925237  Gyration_radius:  2.40067617458 Dipole_moment: 5.937
 S          -1.29249370986762   -0.21603042037501    0.08630858556916
O          -0.94765126838860    1.20321227207679    0.00709198153439
O          -1.33425246095624   -0.67934591727726    1.46363031891060
O          -0.32892545004831   -1.00916144927907   -0.68933214468411
O          -2.68687842579106   -0.41556070481733   -0.53831727236453
H          -2.66257524418792    0.14632797501918   -1.36807959251546
H           1.02439516455673   -0.98583621375198    0.07351991174409
O           0.33308158218597   -2.58323605912545    2.34858160346632
H           0.21834374975820   -2.59955115348484    3.30049739689209
H          -0.39716905092198   -2.02785945397274    2.00106763130346
O          -2.16251672207644    1.26063072528984   -2.41873354935403
H          -1.80354430472802    1.77817658642288   -1.68545811182111
H          -1.37316748727593    0.89420248076494   -2.87918274756939
O           0.23420344290948    0.20086722257419   -3.00740466633471
H           0.91338095094176    0.75707981284189   -2.60191714313422
H           0.03258639197151   -0.45530084176738   -2.31623699131764
O           0.60373854782096    0.94602194266762    2.30649494014381
H           0.38026078131701    1.75359491904157    1.83516271643722
H          -0.19615051140350    0.38874513183035    2.21210519228037
O           1.54436868293200    1.50517342763517   -0.83180931089949
H           0.61599225588540    1.40225768228621   -0.52705404986309
H           1.69790487688742    2.44849361272788   -0.90409346744624
N           1.76872384026283   -0.94337476581323    0.83673286335849
H           1.56626055020094   -0.06629203659879    1.38295946752483
H           2.70552357286585   -0.95602750010745    0.44868016402462
H           1.54656025516181   -1.74720727481205    1.46478627412991
