    26
        -50.45500884  Gyration_radius:  2.51100264561 Dipole_moment: 7.161
 S           1.53087133135279    1.83436592356153   -0.19487464726078
O           1.21562720374272    0.55106048291013    0.45771984605457
O           2.91122060302381    2.16165941098827   -0.21003702274089
O           0.63639639635850    2.86851004541455    0.36566341922112
O           1.07538608027162    1.63903151213407   -1.69853264335689
H           0.12991584639138    1.39625661758914   -1.69341652997529
H          -0.56596949339862    2.30130901663694    0.67945308213352
O           0.66365675989063   -3.03287037208898    1.56933071875820
H           1.17850514820871   -2.64380898545237    0.84059577382315
H           0.32391596745620   -3.86731117856044    1.24315112373088
O          -1.50296730307093    0.82567422019212   -1.73746966055284
H          -1.34117096997149   -0.13562128811449   -1.47436468711486
H          -1.82218980662976    0.81089943177224   -2.64063765127493
O           1.73167029106170   -1.72123525291429   -0.65648018303738
H           1.62959513506351   -0.82396898182768   -0.24288350951100
H           2.58697708692124   -1.71219969569145   -1.08728635623242
O          -0.73449973064506   -0.68465883855315    1.67708271760175
H           0.07215731027639   -0.22998778779606    1.34145228870625
H          -0.39453391269906   -1.52602334039830    2.02324218018316
O          -1.02162725932836   -1.55570520739121   -0.88458473201229
H          -0.08157766520529   -1.74408106820587   -1.03966441230431
H          -1.07461995520278   -1.36641417395371    0.07657562631136
N          -1.57928264482970    1.78795270154849    0.81296066946928
H          -1.86200133867502    1.51903512304490   -0.14082727403382
H          -2.25110720440824    2.41490066097865    1.24086335220218
H          -1.45434787594556    0.93323101420500    1.37296853124153
