    26
        -50.45500853  Gyration_radius:  2.51351006911 Dipole_moment: 7.144
 S          -0.61158690376113   -1.86977225891889   -1.37267159817046
O          -1.52844559917445   -2.94901596440770   -1.45954043503677
O          -1.04629290696349   -0.76987926841003   -0.49321028463100
O          -0.18878759870991   -1.28781274101002   -2.66350829443398
O           0.70806035597357   -2.42276675322768   -0.69571236368741
H           1.32453996612191   -1.67264147000226   -0.59553339554278
H           0.35706440981801   -0.05550525775898   -2.44195043148249
O          -0.73878565685116    1.79911447959965   -0.14384841765845
H          -1.37512506215253    2.09577619534802    0.52713802974604
H          -0.99221045481161    0.86103389229746   -0.30458233294424
O           1.04679636558439    0.74545030159557    1.61839995182615
H           0.45059690460965    0.07634216301201    1.99137156969179
H           0.46482695589615    1.30400252641362    1.06005278351259
O          -1.10304623414286   -0.94305943589691    2.08328167783564
H          -1.13380888356032   -0.96232165356397    1.09070513965265
H          -1.44163992623653   -1.79198940939987    2.36946338451831
O           2.39768859923043   -0.35378722632289   -0.27943581815516
H           3.23752705850663   -0.68275983823213    0.04348543325746
H           1.92812770522621    0.06020045756817    0.51265898577224
O          -2.10744059409121    1.65832309539797    2.21983775093266
H          -1.89574345581361    0.70794903731134    2.23481759793087
H          -1.81821586825011    2.01184250207183    3.06205590274219
N           0.89695820415820    0.91584771485922   -2.17124149724631
H           0.27228085807933    1.50067386027771   -1.59897393090054
H           1.20292032998904    1.40672997304610   -3.00366939505043
H           1.69374143131220    0.61802505830657   -1.58938998238393
