    26
        -50.47225096  Gyration_radius:  2.39569915359 Dipole_moment: 5.715
 S          -1.65740626584980    0.14264672605847    0.24801716107817
O          -1.83350399975330    1.33558977290898    1.05411878123124
O          -0.68747856490156   -0.76338800970266    0.89279637796579
O          -1.24005655170879    0.44909153925404   -1.11203873451317
O          -3.00531650946438   -0.62129956052555    0.18841300161678
H          -2.85530936547279   -1.26458579207544   -0.54821703080555
H           0.17633356443687    1.29374429667954   -1.55412477030248
O           2.36012641643179   -0.46302547528131   -0.62381247049267
H           1.77643681598672   -1.20665638555933   -0.84533084425638
H           2.27724456241011   -0.33126364722745    0.32966177081987
O          -2.07832801751375   -1.95219886274730   -1.86322166102522
H          -1.26154231704673   -2.42589848016579   -1.63549397493698
H          -1.77881352828278   -1.05118408398568   -2.06595638718423
O           1.05481666522890    1.71840669718498   -1.45596359068697
H           1.67415403366736    0.96517861575286   -1.31213510326058
H           0.81884802180020    2.27789028061395   -0.09013869882772
O           0.39788971011603   -2.49605002947597   -0.70287421440010
H           0.58264846686724   -3.28765748398042   -0.19469708301402
H          -0.03040267219202   -1.85554747458893   -0.08081499679299
O           1.44563435961301    0.14982377850219    2.04289510669025
H           1.50306285075844   -0.20912275567241    2.92939633198981
H           0.61073598400943   -0.22008673137330    1.64924332206189
N           0.52435903968145    2.45380049780887    0.95144563391651
H          -0.48847498328773    2.13977409023869    1.02437041606595
H           0.64156857523893    3.42009501103143    1.23490107907508
H           1.07277370922673    1.80192344632578    1.53956056798873
