    26
        -50.45880510  Gyration_radius:  2.65268717839 Dipole_moment: 4.568
 S           1.24501184182891   -0.97093727838052    0.10908155392580
O           1.03367671492530   -0.19290573148957   -1.11039341342435
O           0.75454366080919   -2.31801145647183    0.00605674185403
O           0.39046358123009   -0.21860639489189    1.23223546568207
O           2.60897632372114   -0.86048234721286    0.61221379860696
H           2.67391735853526    0.49261949048507    1.14378792782623
H          -0.47923126415232   -0.07131781995942    0.80269748207060
O           1.51136478453974    2.36447382733746   -0.74410597409791
H           0.59949243971829    2.68405846306726   -0.56595934863483
H           1.39583610376129    1.43774616879422   -1.06319481100110
O          -1.08669007917915    2.87308969566477   -0.24251815797195
H          -1.58090336965149    3.33261986154588   -0.92336451114433
H          -1.36750918244785    1.93798145373045   -0.28498206839589
O          -1.50177866788301    0.21437939863084   -0.52837210261170
H          -0.70478152338840    0.01399417226943   -1.05579445692683
H          -2.16905025492664   -0.48021509239641   -0.74767454149269
O          -3.19053664630799   -1.78354759563411   -0.96319490534951
H          -3.93880036336227   -1.79809497254848   -0.36433336260653
H          -2.59882737978432   -2.51876147621552   -0.67282290907052
O          -1.52280434012293   -3.64186265470104   -0.05417796942553
H          -1.31303416155843   -4.38377281715989   -0.62422659135685
H          -0.67859913563493   -3.14969725705852    0.04704076230820
N           2.53858493833552    1.53295005591196    1.45987923747250
H           2.14928166558449    2.02413259270953    0.56071191320493
H           3.40564300349475    1.94586911140044    1.78683084568860
H           1.82575395191599    1.53429863258347    2.18457940487625
