    26
        -50.47124727  Gyration_radius:  2.41735221125 Dipole_moment: 4.887
 S           0.07043814810656    0.03920186040460    0.91604501371430
O          -1.13475870746485   -0.24339684827993    1.67193979831785
O           0.40581220277987    1.45602746827518    0.88589840212683
O          -0.00228954769587   -0.52866616132233   -0.43548332179403
O           1.28692779980160   -0.64231420283448    1.61055851506255
H           1.07542269695046   -1.61179964469538    1.75169359024812
H          -0.86176251504011    0.30025974369065   -1.76550238881203
O           0.57101258534556   -3.10353641085980    1.94534812349995
H           0.28416109537205   -3.23072318480575    2.85230921430223
H          -0.25450571115652   -3.09985464142197    1.39433058075375
O          -2.32911723062432    1.70050815989489    0.21655802016726
H          -2.06441845998704    0.94888669702847    0.77483770055904
H          -1.93984359782390    2.46774739085384    0.64197500212046
O          -1.19370704282999    1.11680023306123   -2.18317712722063
H           0.19153754483195    1.86453675368384   -1.98292398636862
H          -1.81453650440317    1.46271661043345   -1.51286413978841
O          -1.60307121282845   -2.59966559942721    0.55114120343623
H          -1.66570321133141   -1.75195573168250    1.03495868850311
H          -1.27410402370851   -2.35051143343924   -0.31850140144352
O           2.47126314502060   -0.13353617512198   -1.24119345515542
H           2.99715854855134   -0.26447527567665   -0.44938727981314
H           1.57200579390071   -0.45147759308908   -1.00641788283167
N           1.10245835548645    2.14447776375451   -1.49511213868826
H           1.82236038172899    1.40972636832973   -1.66780889814773
H           0.86590434497306    2.02408190526649   -0.45823101436674
H           1.42135514307861    3.07694196569397   -1.73099083963172
