    26
        -50.45000106  Gyration_radius:  2.53026331599 Dipole_moment: 2.294
 S           0.50920223205970    0.61958908464621    1.58576937969923
O          -0.92023146687441    0.56101193405578    1.43686347772719
O           1.02648702009104    1.88984744540353    1.99990022365712
O           1.16463078363805    0.21092408976599    0.23785885040466
O           1.00226233565004   -0.46876102621583    2.52703806500121
H           0.52485796390477   -1.34364610437265    2.25298906515022
H           0.75130902745277    0.77002732067702   -0.51668955177940
O          -0.05391553902357   -2.61781555531865    1.76693188368176
H           0.35632375708897   -3.34759004227282    2.23627954342341
H           0.27000340831418   -2.66879712106976    0.80000158029408
O           0.03268468457096    1.67561715359031   -1.49615320044936
H          -0.90412685715327    1.42229310304954   -1.37991027334043
H           0.13079852963315    2.53840016802180   -1.03456574308179
O          -0.79245563279223   -1.11307218277651   -2.39319557444332
H          -0.24472244212262   -0.36295664373691   -2.64018811379205
H          -1.51133966163378   -0.74141577582555   -1.86317610837099
O          -2.33807931339067    0.57203286853002   -0.76191959219389
H          -3.20758663639653    0.92823006852228   -0.57360800331675
H          -1.88558555912681    0.48181496815912    0.10781598455692
O           0.34902552640835    3.71252276834340    0.18316146663498
H           1.06313179901894    4.35161212326697    0.14438212098911
H           0.54570554027931    3.13364004624661    0.94894073096351
N           0.92721090890208   -2.62131431664616   -0.64622519445368
H           0.22032378723929   -2.26083886553416   -1.29077585802221
H           1.35848361272925   -3.42930299044903   -1.07701110823955
H           1.62560217152587   -1.89205250805186   -0.55451406068160
