    26
        -50.44233868  Gyration_radius:  2.62585221762 Dipole_moment: 6.076
 S           1.48200667969480   -0.95564062442364    0.89388717331096
O           0.92693470977753    0.34554723867772    1.14764050398641
O           2.11159363370948   -1.13280754719198   -0.36966708525363
O           0.33982216671475   -1.99403580752409    1.08801316028982
O           2.47562597021557   -1.35127280320386    2.00714359407819
H           1.94641007332362   -1.42138966152184    2.83665092752490
H          -0.52468751694236   -1.49607695475073    0.76181463653631
O           0.66715346292945   -1.89866385035492    3.81391955916904
H           0.81935246673959   -2.70930526791847    4.30643838757064
H           0.13664933578130   -2.12623350518128    3.03698459199682
O          -1.53280160529769   -0.54979877614429    0.33334794696670
H          -1.07234489038721    0.25201294742246    0.61780875137514
H          -1.52078883693182   -0.52754351445209   -0.66444282124923
O           1.14360724746622    0.39992679444645   -2.43379831211879
H           1.64444313600007   -0.19890018112311   -1.85887535887949
H           1.12822384322345    1.25836825125802   -1.94888768540896
O           0.81438095990178    2.40972006940286   -0.70835504012357
H          -0.15741967197810    2.50234405863010   -0.78090684598665
H           0.97042868638310    1.84254281193883    0.05955820646237
O          -1.30028707207553   -0.42429065498965   -2.27108843807710
H          -0.35906956203722   -0.08439806920327   -2.39714666834233
H          -1.35014907536289   -1.24357285056113   -2.76496701268762
N          -1.94635285348480    2.30573583835515   -1.06690586996864
H          -2.21946169535304    3.12883252234016   -1.58915116699498
H          -2.64154959153372    2.15364790926115   -0.34649457183567
H          -1.98172001046758    1.51525161680855   -1.70252056232981
