    26
        -50.45979795  Gyration_radius:  2.51759500102 Dipole_moment: 4.670
 S          -0.46979406170236    0.11586784280945    0.61896667466875
O          -0.57648343983977    1.42595246334988    1.20640920634268
O           0.85795929080354   -0.11506999392639    0.01482730033535
O          -1.50040399097902   -0.02410770780478   -0.53184943922262
O          -0.78340098740791   -0.96857771315358    1.54742088450481
H          -0.34932412055232   -2.25276439843386    1.16411234602102
H          -1.45847857503099    0.82819607487203   -1.11608183589937
O           0.13843475995383   -3.10402871533858    0.74517177371771
H           1.16644871636974   -2.86464413447650    0.95815860870877
H           0.05855617105660   -2.91836519190324   -0.25140362711739
O          -2.31024872203320    3.26125188798719    0.36362057785997
H          -3.16653514796726    3.06624515387721    0.74679483552102
H          -1.67347021202567    2.65490591756449    0.79570736182472
O          -1.31392577986147    2.10910242834692   -1.84924463673287
H          -1.80622205610519    2.70676599168285   -1.24962469616764
H          -0.36579612397360    2.32792782540378   -1.69880392481081
O           0.08626641400845   -2.05837250574866   -1.58000590094703
H          -0.78851324383687   -1.77309677995848   -1.86062955170959
H           0.48213607753267   -1.26819893073874   -1.14735752709637
O           1.12858664894750    2.41246947352221   -0.81552781677727
H           1.18440166161274    1.47901831717216   -0.54108353596904
H           0.87852958061037    2.88876444807225   -0.01830759572443
N           2.45220259398552   -2.16034371963144    1.11693638930109
H           2.77163948638803   -2.04257394183413    2.06929188102618
H           2.12987371905751   -1.25394734842776    0.76565494515102
H           3.22756133099116   -2.47237674328472    0.54684727319136
