    26
        -50.45209309  Gyration_radius:  2.45046511899 Dipole_moment: 3.922
 S          -1.50283029093556   -0.41972090393564    0.11954929040726
O          -2.03541620816976   -1.08156892570591    1.26046618492329
O          -0.23238146743480   -0.92746384444709   -0.35830211030421
O          -1.35546153788184    1.08238235155454    0.40807843636257
O          -2.53320617685343   -0.50267463215944   -1.01270175125575
H          -2.21683996605956    0.00742411860712   -1.83258033034565
H          -0.48623242904508    1.48405560045748    0.05196963386471
O           0.31484206568133   -2.79855542524056    1.56456585617272
H           0.22387228931296   -2.23199001210050    0.78162428360521
H          -0.57935548919505   -3.08027605002463    1.77322047661610
O          -1.64301338042854    0.70175714992470   -3.07387821977332
H          -0.65368751203625    0.61907284474755   -2.96022483768760
H          -1.87172056524185    0.20626097321569   -3.86302197850484
O           0.85945750645864    0.34547263119878   -2.44673091471216
H           1.09700182487536    1.15848678238152   -1.98129285152120
H           0.61801489173073   -0.27907432085349   -1.73671553109430
O           0.13670791363934   -0.39368757706808    2.85637509300084
H          -0.77692140251566   -0.33182541090550    2.55619037646906
H           0.37624522894834   -1.32338363433505    2.68561746053953
O           0.84594562606782    2.11692189241360   -0.32536638959572
H           0.85799618285215    2.98401281017012    0.08405186386575
H           1.45576820355436    1.50326949088796    0.25060304161465
N           2.19486102337555    0.49676826760774    1.13629907202616
H           3.06963992101927    0.73745176476831    1.58444328497294
H           2.33135398785632   -0.35874794503554    0.61165646760858
H           1.50535976029024    0.28563202398919    1.86610410272135
