    26
        -50.45209306  Gyration_radius:  2.45026644586 Dipole_moment: 3.922
 S          -0.30708637374045    1.53520660371049    0.01167356935783
O          -0.80517688555534    0.28749374637287    0.55512703160416
O          -1.15156433785869    2.16611114970549   -0.94340083861158
O           1.07999607050900    1.28651428977399   -0.60089321748337
O          -0.05812190525022    2.51826891467564    1.16158515018036
H           0.58300901192050    2.12610953506761    1.84547266010935
H           1.47536825801297    0.37530949244935   -0.36161229006812
O           2.06161222653193   -1.01543672555927   -0.16361140851212
H           1.29034502369022   -1.55198249833783   -0.60832638502360
H           2.81697485262513   -1.07546011722214   -0.75136738390743
O          -3.08491948656228   -0.02958245486902   -0.92810107137447
H          -2.35834938334443   -0.01716637615624   -0.28457259898411
H          -3.32674896416366    0.89218967296951   -1.04848737330043
O          -1.00538451041352    0.01732037575497   -2.70454285233992
H          -1.89372174450132   -0.15688639992050   -2.34199883171412
H          -0.80374211026049    0.91003208862947   -2.40294375812619
O           1.47070034516859    1.44560955994694    2.89494314309198
H           1.17171979930858    1.67513196335710    3.77732616055289
H           1.28482257969898    0.47130506107684    2.77369929375949
O           0.78568682063173   -0.99275380390398    2.28812632524961
H           1.45949174614314   -1.26834930701017    1.65247617247971
H           0.04731687847891   -0.67264061979933    1.73606268986971
N           0.05960482465610   -2.17402499429443   -1.27262894603758
H          -0.24566506657978   -1.43962993478797   -1.92078652155746
H          -0.67155066684030   -2.26854266229610   -0.57819101579825
H           0.12538298757648   -3.04414656946353   -1.78502767414544
