    26
        -50.46690814  Gyration_radius:  2.45045768231 Dipole_moment: 5.036
 S           0.44624397151379   -0.21370300378934   -1.17783456514578
O           1.62380047910046    0.64193565897556   -1.22300883912412
O          -0.70807495701974    0.54792456938445   -0.64733788088077
O           0.64162903430339   -1.41564192429209   -0.39343319262873
O           0.13018094300146   -0.57879232247951   -2.64391085362050
H          -0.41103591060055   -1.41667919257923   -2.69041431340072
H           1.08934902305726   -1.25264690657549    1.23914636018396
O          -1.48571679829616   -2.60002260926944   -2.75749118943099
H          -2.17549329268256   -2.39532534778890   -3.39234813071055
H          -1.86172408814393   -2.41604895389081   -1.86077128208849
O          -2.17164548305724   -1.68101882825310   -0.39253804223012
H          -1.58952806251708   -2.13965461482023    0.22048621077812
H          -1.76387286284972   -0.80281978708414   -0.51438924454756
O           1.20784228754842   -0.85906448240379    2.13313209006131
H           1.86141082871501    0.46811270144963    1.72474403648121
H           0.31080053254635   -0.56093184099297    2.38108279427301
O          -0.03075623187915    2.81125366469350    0.56460722647702
H          -0.32310524089207    2.02488843107824    0.04722299153633
H           0.05454959322063    3.52057614022522   -0.07385659725506
O          -1.16280543056236    0.40080261176864    2.04746309941965
H          -1.31551570166800    1.31472107837987    2.29540711022505
H          -1.11430605917869    0.40013147635451    1.07422808341620
N           2.15362619593542    1.35649346849316    1.18206181031583
H           2.11543326739956    1.06027943541747    0.15210271904106
H           3.06587978099515    1.70372313809060    1.45439536062913
H           1.41283419188788    2.08150745987629    1.25125421830895
