    26
        -50.46187387  Gyration_radius:  2.54523316598 Dipole_moment: 4.302
 S          -1.46238807121975    0.90918551947579    0.65452938542859
O          -2.38786283548037    1.78824789187093    1.30759616086750
O          -0.08956658970460    1.42048679727592    0.65010961945908
O          -1.86304691855064    0.81231903253037   -0.89049664305238
O          -1.50578600233318   -0.47935161227006    1.10068747455342
H          -1.20501614757940   -1.36182815727678   -0.10590896802743
H          -1.89474264034270    1.75714831362769   -1.14614050697459
O           0.92216528647172   -0.29732735723219    2.43515274136738
H           0.70855055457592    0.43960042405864    1.83208935194602
H           0.06917445692997   -0.71779539420124    2.58539395431917
O           1.52079236902770   -1.76700845443993   -1.40548181270002
H           1.89356843393016   -1.99046837662909   -0.52158707477810
H           1.63527205538741   -0.79402912196309   -1.49820151109707
O           2.32521889763179   -2.12213706549420    1.09877414833674
H           3.22654536811226   -2.08588196284579    1.42024784128115
H           1.81807399209559   -1.45746899503175    1.62509468152946
O          -1.72679858726949    3.43186612510076   -0.66053514507524
H          -0.80003419168881    3.56766948032739   -0.44545070364319
H          -2.14347611732317    3.14272725439811    0.17292592747680
O           1.54488616504574    0.89589980062596   -1.33517632607749
H           0.90215366400624    1.09947146019114   -0.61724848751727
H           2.34415921190771    1.37771122475362   -1.11671249949033
N          -1.02081411142330   -1.81124947169706   -1.06042471815347
H           0.07367844387103   -1.85850858497786   -1.22805810871181
H          -1.43586167582463   -1.16961674500367   -1.73495199395094
H          -1.44884500028319   -2.72966202517909   -1.11622682733128
