    26
        -50.47385543  Gyration_radius:  2.4430595282 Dipole_moment: 4.144
 S           0.98634657770865   -0.17920898703930    1.10874397587911
O           1.74645472384461    0.48354621576986    0.07191554119240
O           0.13601068778161   -1.23574501660911    0.54154398770035
O           0.19327504807243    0.73256708011075    1.92145915344051
O           2.01873404650042   -0.88660008526511    2.04132440846358
H           1.47819028523718   -1.15048760291867    2.81186752218224
H          -0.93764092254043    1.65317577780459    0.98268074324256
O           0.15662248070783   -0.94626809332425    3.91864210520978
H          -0.07287751883018   -0.23968276703800    3.27926793202461
H           0.36352520009303   -0.50585220453527    4.74612686863090
O          -1.52825941401340    1.96982915756954    0.27271819074913
H          -2.01938896193977    1.18806385265918   -0.01295095539348
H          -0.34774089821140    2.32509297496477   -0.91417291884411
O          -2.10149433947897   -0.65816653637504   -0.61917362089853
H          -2.74442173917657   -1.33025308359767   -0.38843213995773
H          -1.27663647405660   -0.88626595302843   -0.11086299574009
O           1.47023005497590   -1.55425326671722   -1.69211179559957
H           2.12962691621567   -0.89753869541823   -1.43197131972494
H           0.97139980106537   -1.68719933297219   -0.85616124463942
O           0.40457806181137    2.13834537132621   -1.52606951640909
H           1.06337031101731    1.69455856339334   -0.95230474991835
H          -0.09507883426918    0.96052721031747   -2.30817044495650
N          -0.43492194457618   -0.01265690633157   -2.67559640899452
H           0.34923639900907   -0.69514622999989   -2.44670080500926
H          -0.65762180934788    0.00231559181505   -3.66394979613489
H          -1.25151772759962   -0.28269702456404   -2.09766169653807
