    26
        -50.45363473  Gyration_radius:  2.44694386832 Dipole_moment: 4.262
 S          -0.36299803091420   -1.36525500753538    0.10418099891443
O          -1.23489357017967   -0.28215270842872    0.49629041339318
O           0.59718301442109   -1.72706196421910    1.09976802164899
O           0.38454682218256   -0.95605548008542   -1.19715351472501
O          -1.17012326134360   -2.56281028164851   -0.35617139516125
H          -1.57550605051498   -2.29993810444671   -1.27846184733435
H           1.18123178586653   -0.39896037980350   -0.90748132477359
O           2.24295026199383    0.42361502126303   -0.16083510211373
H           2.61694957553853   -0.21570524538866    0.45063937067772
H           1.65057432727024    1.01406554848581    0.39137893330452
O          -1.94569223852937   -1.74333052813433   -2.59781203366051
H          -1.13658112982921   -1.75424774546704   -3.11622517797321
H          -2.13342957227528   -0.77750772704386   -2.40856974870017
O           0.19866387465597    2.19069038044921   -1.62846134760950
H           1.06539708193321    1.81221034514757   -1.79249168384192
H           0.17868229784932    2.42436218224138   -0.69309169964741
O           0.44051417685649    1.68237337664626    1.23107655409485
H          -0.31061318525063    1.09980679283618    1.01068663169104
H           0.70517668158672    1.38235981637393    2.13086332368817
O          -2.15525771067256    0.73182729265297   -1.81989823655805
H          -2.05727028551481    0.48921314151625   -0.88461093194037
H          -1.39566187009305    1.31231067305428   -2.00083730140900
N           1.05601931956030    0.12278080020665    3.34431343376467
H           0.31371960689866    0.08789479678036    4.03238842424419
H           1.92951015324702   -0.02350070563317    3.83563069296625
H           0.91690793523978   -0.66698429984933    2.71488453703619
