    26
        -50.45052663  Gyration_radius:  2.48800211776 Dipole_moment: 2.506
 S          -0.45475367411255    0.02514407320088    0.22953312315900
O           0.10163126397721    0.51669102379190    1.45509809063307
O           0.15348253282875   -1.19249640575255   -0.26752289677846
O          -0.34609941222441    1.08778568435089   -0.85959900467715
O          -1.95768773592316   -0.16900474796694    0.39448044145263
H          -2.38016731801519   -0.46183956655230   -0.49217973150748
H           0.64254008901830    1.54749781852294   -0.88330916064765
O           2.66829867844185   -0.33145775748605    0.19241949707200
H           2.72853396132252   -0.26478733122155    1.14856092844511
H           1.86219684067607   -0.84173971058958    0.00845918881234
O          -2.86235959854141   -0.99079622287839   -1.82562171736631
H          -2.03351197749288   -1.00886938343145   -2.37362691557341
H          -3.15800398569138   -1.90118720541230   -1.74638800685874
O          -0.45390136543690   -1.02981863623281   -2.86543315953266
H          -0.08032313720409   -1.23115510154430   -1.98667004670968
H          -0.16387928461380   -0.13965798512990   -3.08033433982293
O           1.43094478738225    2.84275130723474    1.69102311044130
H           0.82656164834378    3.53621337078699    1.96042219651591
H           0.94748913106929    2.00035743774078    1.78300701638096
O           1.93507475130168    2.02180945354477   -0.77798188710284
H           2.42560369094615    1.19702840678929   -0.54424494013731
H           1.89750414683257    2.53750308749356    0.06114000636445
N          -0.88741333619076   -2.14585673744257    2.38674953699188
H          -0.48534194840569   -1.26087624470261    2.67136979555332
H          -1.87494140204332   -1.97839460299965    2.23556883577369
H          -0.48147730612876   -2.36484402331608    1.48508003930836
