    26
        -50.45942135  Gyration_radius:  2.43934332106 Dipole_moment: 2.709
 S          -2.12659686165260   -0.34424201572145    0.18185102886662
O          -1.56449152447356    0.98781856986939    0.21963484118486
O          -1.87814189447400   -1.11844208297040    1.37934105344595
O          -1.73045299232421   -1.07591471511724   -1.02075992411994
O          -3.69559424853556   -0.15605802605781    0.08516601549130
H          -4.01326975771272   -1.04448856101278    0.20701969409696
H          -0.71134495797987   -0.55715816400820   -1.96267757900381
O           1.96275499559343   -0.96090491971306   -1.01027349406218
H           1.46665006790053   -1.46100049107863   -0.32283394641417
H           2.22754703478770   -0.11847236292294   -0.59131244088070
O           0.13372515432916    2.12914447443558   -1.45145456528901
H          -0.58950379118738    1.91429861074155   -0.82461144441046
H           0.95259866634386    2.08014892535358   -0.92156492397986
O           0.09490674179463   -0.16119474063792   -2.47231076235057
H           0.93325597439711   -0.56463736520861   -1.96829553639203
H           0.10848333993001    0.85453636391963   -2.19603402021785
O           0.40363373574409   -2.24216775057169    0.75149486624256
H          -0.45391080747882   -1.83147547415519    1.00639473981343
H           0.17427611066849   -3.08319697204964    0.35187761516741
O           2.21822163132342    1.45830283122450    0.18753209670165
H           1.63170589715501    1.19217679744913    0.96796818787982
H           2.96954992944804    1.93146174771375    0.54524522507606
N           0.58939653708485    0.65111204791489    2.07307302640417
H          -0.29457732982148    0.77071095630091    1.57814348624379
H           0.49275794101505    1.09396360134070    2.97823859470846
H           0.69842040812379   -0.34432128503851    2.22914816579577
