    26
        -50.46434421  Gyration_radius:  2.4991578959 Dipole_moment: 7.181
 S           0.59034859069776    0.50050396429579   -0.64158946268751
O           1.42836783892407    0.91026054690689    0.46520398243933
O          -0.80720228867168    0.88354318089348   -0.43714672803025
O           0.62645249765336   -1.04511794899806   -0.76810754214037
O           1.07766062793785    0.97489014251689   -1.94118981846402
H           0.48005688517052    0.06787568340205   -2.82570580955918
H           0.40981773853392   -1.47542471082080    0.17206672165591
O           0.11407767367197   -1.95533014875655    1.49021876731567
H           0.91270266398575   -1.68344030728489    1.99805142242374
H          -0.60846221233140   -1.34327430898820    1.78750119917310
O          -1.51132191331903    0.04858810033829    2.01967754198963
H          -0.95976130780305    0.63718163283455    2.56184585120820
H          -1.42663037893011    0.39864355439206    1.11356520574993
O           2.18342705051300   -0.64937978378136    2.57015995910111
H           1.82879107609327   -0.06354871833200    3.24671480466476
H           2.18582585659368   -0.11648125735603    1.75669505128827
O          -2.39113940392825    0.13035826853543   -2.34570438550257
H          -1.87317586910445    0.40339920769949   -1.54226555283029
H          -2.88651511021331    0.90713930645114   -2.61102022266157
O           0.48379368438987    1.78270810587770    2.80927100678031
H           0.35161853894974    2.73122364478262    2.81227904006468
H           0.84392779027802    1.55845256377270    1.92548350197808
N          -0.11784006615169   -0.73208716649245   -3.33619495013674
H           0.08248010486086   -0.82511980537097   -4.32640292208638
H          -1.12218571980646   -0.46445967869451   -3.13652695752301
H           0.10488563198076   -1.58110406781495   -2.81687970419138
