    26
        -50.46383684  Gyration_radius:  2.47248068313 Dipole_moment: 4.067
 S           1.18131563418538   -0.58530832412149    0.96017857349480
O           1.81746508297267   -1.49206348288100    0.03727575652058
O          -0.13985601877273   -1.04492877735331    1.38407215371493
O           0.95255406846176    0.79075628048850    0.22975141596950
O           2.01677828943946   -0.21252848497659    2.10207072711729
H           1.40095881246977    0.99059608650411    2.52028203090812
H           0.07773881964435    0.79688007086011   -0.27993521620751
O           0.71347014781435   -1.93965287974805   -2.25953011970920
H           1.16343833188426   -1.74652616242174   -1.39510673417628
H           1.28334753178228   -2.56644553795576   -2.70784632352539
O          -1.61679489017128   -1.77185509506784   -0.71815849665002
H          -0.95041617945177   -2.07152644668300   -1.35348452869861
H          -1.15357503985646   -1.72947692944924    0.14031848866817
O          -0.33013444798751    0.30708708857499   -3.41533319106071
H          -0.97887452930468   -0.04139221666703   -4.02947845564542
H           0.14574366508881   -0.46658721279266   -3.05411840741170
O          -1.50701056046760    1.11271540182682    1.87690913243641
H          -1.73337172832956    1.36370017406277    0.97171738715328
H          -1.15324811568383    0.19331082697967    1.79211454362341
O          -1.30978404747619    0.83372463600022   -0.96848943440966
H          -1.60956236642025   -0.10910169611380   -0.87910174704708
H          -1.01805475344287    0.89890331534430   -1.90135918738780
N           0.83045078385606    1.92964873418823    2.71747675989681
H          -0.17811683434975    1.71171562206600    2.41000814341752
H           1.21954539914161    2.65565150682732    2.12278597938510
H           0.87599291495585    2.19270348255658    3.69698074965760
