    26
        -50.46383706  Gyration_radius:  2.47192187185 Dipole_moment: 4.066
 S           0.70295168101030   -0.66600117598177    1.31212383156659
O           1.20734797405641   -1.25169975178926    0.07163113368011
O          -0.42253240668733   -1.38729809817400    1.85210899060907
O           0.23297297058196    0.79205674154432    0.94823932140370
O           1.77850436329687   -0.43020672500529    2.27576007355915
H           2.45337202012758    0.66189136272677    1.68250614599047
H          -0.15701934781689    0.83249196637352    0.01462062753622
O          -0.78537630109071   -1.71988703761668   -1.64273230800242
H           0.00529022005842   -1.78638591302361   -1.07360664118595
H          -1.53741710854918   -1.88448310007076   -1.05547630634102
O          -3.25375920132313    0.81415198031223   -0.76850454374696
H          -3.08047658296591    0.01645637004387   -0.23077619847144
H          -3.84452693316336    0.53931945582163   -1.47179109292407
O          -0.65518991071125    0.90514509475977   -1.45042341130490
H          -0.68109377842476   -0.05416068293580   -1.70730338731162
H          -1.59402699952475    1.12791205371857   -1.28228615505616
O          -2.60712093285078   -1.53384444144230    0.47363850717447
H          -1.78510541294417   -1.45276993572159    1.02568561981835
H          -3.21471003877270   -2.05731743842769    0.99844296696176
O           2.20074731733478    0.73204711726624   -1.28693035862607
H           1.38192781420687    1.10681893789010   -1.63724778068669
H           1.92815260254653   -0.14395888781876   -0.91829282312955
N           2.86488320870677    1.52988226888596    1.11330290465689
H           3.86018088944196    1.64335442158208    1.27792756235703
H           2.34778667021726    2.35646122305086    1.39860221889899
H           2.65423721331734    1.31002420405268    0.08078107258192
