    26
        -50.45377802  Gyration_radius:  2.56072033315 Dipole_moment: 5.312
 S           0.69129258906936    0.04131539835081    0.03822863714165
O           0.05126266323940   -1.17930577911526   -0.39814125299379
O          -0.14492759384236    1.20542281076811   -0.11037540465222
O           2.01136433717598    0.22063242678306   -0.69173685395553
O           1.10549204287636   -0.14174169921419    1.49419840654366
H           1.05571919758997    0.73734065687691    2.04046257866701
H           1.90584938418299    0.16074142945132   -1.75361390564481
O           0.79309119604830    1.90874874611441    2.90811277142269
H          -0.17024907070741    2.06122654326343    2.65837296177393
H           0.80110196067316    1.64864464055805    3.83220290617351
O           1.59781479610360   -0.04487808349654   -3.12676682331537
H           1.49818236983441   -1.02223046297640   -3.14962429008112
H           0.67820318700398    0.30556903288523   -3.17549489260715
O          -0.93449868283389    0.55860866068526   -2.59237523449675
H          -1.32574386730965   -0.29897805220658   -2.40766841775680
H          -0.77205842393663    0.97119526917263   -1.72585046461386
O           1.03696361281091   -2.57279362865480   -2.47114601434099
H           1.71932622948596   -3.16063923656587   -2.14325708566784
H           0.60499715856991   -2.18526331003170   -1.68528948698521
O          -1.64977404666396    1.94345920186830    2.05539944198921
H          -1.35751201797152    2.05595787194168    1.14031597540615
H          -1.86965938060054    0.98539821893339    2.11069759748899
N          -1.85363794567353   -0.77817116511096    1.84920876968513
H          -1.25408466002399   -0.93506619127900    1.04443448775462
H          -2.76019900595854   -1.17998626884588    1.64125821843871
H          -1.45831602916118   -1.30520704015869    2.61844736464276
