    26
        -50.46379193  Gyration_radius:  2.52652891292 Dipole_moment: 3.678
 S           0.44430709932908    0.17452182538669   -0.59644713786290
O           0.28320663744935   -0.45990532677373   -1.87979556394927
O           0.37806029554834   -0.82808384422400    0.50825215408567
O          -0.76900724648671    1.12318397391284   -0.33134935982808
O           1.62071354448514    0.99400227978943   -0.45186827576168
H           2.19687514799599    1.67736275099067    0.98898034232158
H          -1.63580059786262    0.63992187198401   -0.61771063686168
O          -2.81921683712915   -0.15105400008766   -1.04813611882755
H          -2.52398573815942   -1.07121905898097   -0.85389014380495
H          -2.73158688593370   -0.06635110558111   -2.01934429107858
O           2.82326605431371   -0.92736342902544    1.68578566095489
H           3.48459142047309   -1.07626455390567    1.00787739011745
H           1.96071733785226   -1.01764298857331    1.23812637585893
O          -1.42895788522465   -2.39601086447343   -0.69687675272777
H          -0.72832838133053   -1.95631056681517   -0.18160776845388
H          -1.06244224361064   -2.48939889553187   -1.58093730211710
O          -1.76563505660073   -0.00808964994290   -3.51400967280023
H          -0.94506740256846   -0.21594845284686   -3.01983457432606
H          -1.57291181145859    0.77403575333482   -4.03249384920759
O           2.33531667360308    1.69815284614655    1.96539703221722
H           0.92629597612794    1.38234224165527    2.31492135870692
H           2.76850811486144    0.83518939519740    2.13091719239750
N          -0.09314185000127    0.95764250523226    2.29965098049404
H          -0.71490345351611    1.58182043070473    1.78445448593793
H          -0.45277615608200    0.73387387016121    3.22208019159408
H           0.02190324396459    0.09159299227164    1.67785829288967
