    26
        -50.45462894  Gyration_radius:  2.52334636643 Dipole_moment: 3.145
 S          -2.15252504142078    0.90520170025856    1.05438841912888
O          -1.02700568355906    1.81320603156430    1.01250607007413
O          -2.01855498104833   -0.15025931593997    2.03969559972705
O          -2.46609416339130    0.35938011291248   -0.26675157078544
O          -3.40873225141997    1.76316796291131    1.48026386516421
H          -4.07153442922503    1.08488007511584    1.54819924420669
H          -1.51973639563971    0.30264476824248   -1.38589978940116
O           0.47929996447505   -1.79953494452656   -1.37868456038244
H           1.41831903589457   -1.47806730298965   -1.28322836674804
H           0.15261130522499   -1.93711264942097   -0.46710983895394
O          -0.73664130773176    0.25733776227357   -2.06339923402446
H          -0.09107675980965    0.99792537339793   -1.75287536175758
H          -0.23998075042340   -0.67445875084279   -1.85070938436783
O           0.75256476725445    1.99429861512670   -0.95744553907817
H           1.32098301967949    1.46452544559770   -0.37377657793489
H           0.05405442761056    2.30066386645038   -0.34770299410398
O          -0.28234252399456   -1.87225355331000    1.22001442200057
H          -0.99112397508355   -1.24247828373141    1.51925464112929
H          -0.43076900476762   -2.68400874003257    1.70758645249681
O           1.30640804194380    0.41140887882319    1.26008461464521
H           0.95936963762496   -0.48536908831413    1.37550776559193
H           0.54332022418749    0.98615195339171    1.44246042004410
N           2.89222932324171   -0.71335041512542   -0.96737064276214
H           2.73151164658946   -0.28038099118360   -0.06204162997584
H           3.14325922733981    0.01567216396712   -1.62346164626420
H           3.68218663649456   -1.33919067463057   -0.87950439766952
