    26
        -50.46549862  Gyration_radius:  2.48968989734 Dipole_moment: 1.992
 S           0.95844381939772   -0.60200615584133    1.27165088718747
O           1.09648539560845    0.78170127419325    0.81459677677634
O           1.88424312944007   -1.47901178751173    0.57996356943917
O          -0.42944317706031   -1.03979408239510    1.14681765577397
O           1.33852893049603   -0.64250831075666    2.78348235989053
H           0.56573278729149   -0.23004139509154    3.22316827885539
H          -1.08012664104764   -1.43762368345593   -0.39179234521999
O           1.92942840289580    1.25063195534281   -1.63832124531622
H           1.60247357394474    1.15696102623253   -0.71200514638209
H           2.84570836156303    1.52141992173824   -1.56200368563362
O          -1.26307460673074   -1.50278614031524   -1.35220691042103
H           0.16537245704444   -1.42230769231430   -1.85445054445283
H          -1.70714700211026   -0.65351891788216   -1.58414390890340
O          -1.18879483381347    2.04925266876967    0.40991214668627
H          -0.38256053120219    1.53250218770953    0.62423436809051
H          -0.89740584155556    2.95860084213241    0.32332099281667
O          -2.34975212522869    0.90544212656803   -1.70973065252854
H          -1.90557397970780    1.35850122000256   -0.95678918829649
H          -3.28688719236601    0.92314751139551   -1.50927234659172
O          -1.08713202487786    0.19867296904989    3.36476026890131
H          -1.13851067019263   -0.17110645322453    2.45988940591282
H          -1.64461692842810   -0.35416051093110    3.91666412015818
N           1.24289002450180   -1.31781808533245   -1.93922467927864
H           1.60194739384822   -1.52858088938441   -0.96406852107030
H           1.49111864530885   -0.31770958097671   -2.10800205649850
H           1.63865262302649   -1.93786002779737   -2.63644957988410
