    26
        -50.45106236  Gyration_radius:  2.46173285219 Dipole_moment: 4.685
 S          -0.97233664008981    1.02997150761979    0.81993279418153
O          -1.44808275868140    0.54006049132351   -0.45572353713258
O          -0.40671982176862    2.33757933827505    0.79753623212160
O           0.03307190723375    0.01373290015507    1.38594477507924
O          -2.12271954423078    0.96967462513600    1.83112006363473
H          -2.43037927209187    0.01306009394753    1.86091032906203
H           1.01247451111468    0.30039356998097    1.23170698906000
O           2.40612290485627    0.76176596542430    0.99159350658143
H           2.28882218358315    1.44138964815930    0.24078047562948
H           2.69979365718049    1.26324345223984    1.75513848138806
O          -1.41761904705541   -2.08474243111308   -0.48002456547501
H          -1.72804695588853   -2.40763789343977   -1.32849198807612
H          -1.36710155698724   -1.10654909030520   -0.56049281573590
O           0.59526114424964    0.69435440055454   -2.31950374535622
H           1.02855513735117   -0.13047582153539   -2.00278812130609
H          -0.24953281131724    0.73041604761997   -1.84994612260282
O          -2.88173525899074   -1.48773543153257    1.69396741992507
H          -2.30661300813870   -1.87530823169072    0.99862355761982
H          -3.78252301575755   -1.52612161966950    1.36338639042143
O           1.81945385799289    2.48554662072201   -0.80260287896193
H           1.46962392415326    1.92146688812406   -1.53606290235685
H           1.03219914551377    2.80133032876518   -0.33452143289816
N           1.60417637362988   -1.49083231181686   -1.01483305621384
H           2.13613044063899   -2.24287892721972   -1.43395985022520
H           0.80291927021930   -1.89702434330334   -0.54338797166078
H           2.18480524321164   -1.05467976637262   -0.30830203664860
