    26
        -50.47001080  Gyration_radius:  2.46298748756 Dipole_moment: 2.606
 S           0.61205331774098    0.20465158083106    2.12026685097918
O           1.10688207276288    1.05422661068090    1.02756096612563
O           1.41774150090439   -0.97137901179758    2.33720136582469
O          -0.80057829579031   -0.05701976272572    1.97519470456691
O           0.79620112886759    1.10639284663474    3.42088048815853
H           0.87739086298441    0.44398798569473    4.09887686157652
H          -2.18392081340018    0.14204472170209    0.98152719658693
O          -1.43047146143075   -1.55465269919144   -1.37873560941505
H          -0.69631263671029   -1.78545305783600   -0.74862829372324
H          -1.77980649747763   -2.39010256880909   -1.69103235753555
O           0.11331447862315    0.36390028242116   -2.60530268797766
H           0.98537606570629    0.14415510406561   -2.23767226847837
H          -0.46723300346096   -0.38225592540138   -2.36572631535765
O           0.67966935468775   -2.12914315960648    0.06236784393966
H           1.37282779381156   -1.68610555067941   -0.45123490241287
H           0.84148338846894   -1.84697207674068    0.98201660155806
O          -2.68623576920593    0.33536653030102    0.16392550498641
H          -2.46938248253485   -0.40812666586487   -0.42746893159296
H          -1.65630982665077    1.39255834491518   -0.33811613357224
O           2.29998377179131   -0.14536784204118   -0.98496175962561
H           1.92128279849657    0.32297954866129   -0.20309993646427
H           3.25167478512111   -0.06432557845207   -0.91231165532761
N          -0.75732945685305    1.89743502472993   -0.63932783261235
H          -0.03292977355531    1.67845364952891    0.09396707344731
H          -0.88968138353508    2.89641571510900   -0.74258480280292
H          -0.42568990936391    1.43833594387006   -1.53758198090633
