    26
        -50.45518989  Gyration_radius:  2.50155106805 Dipole_moment: 1.420
 S          -0.03394227291151   -0.76536413293307   -1.07316308144358
O           0.86911635144354   -0.46674513938675   -2.14691280072534
O          -1.17290125099358    0.11399582262487   -0.98944777876866
O           0.73225924112526   -0.72509397002435    0.26514020580383
O          -0.47736516132239   -2.21606764310411   -1.16264557343219
H          -1.17547300436134   -2.38128793371000   -0.42112850501081
H           1.24859730245337    0.20437250564563    0.35783498184081
O           3.32122365076866    0.54056197475261   -1.76023139791934
H           3.96471033466476   -0.16910538078622   -1.78415123839816
H           2.47230550957004    0.15287935487862   -2.05103801748133
O          -0.89477573746302   -1.16307598683943    2.52533363233620
H          -0.04693891322533   -1.09912236389120    2.06975666116192
H          -1.31762165932925   -0.27676145170546    2.37951771272760
O           0.15066856685431    2.37897538722175   -1.43701580866732
H           0.56029044836880    2.25580709248166   -2.29678718812009
H          -0.48392595932830    1.64391442016572   -1.33869099145155
O           1.91430727472091    1.45566104478952    0.30749340503974
H           2.64756143607996    1.25568119088969   -0.31504229289959
H           1.28545337367221    2.00393742362191   -0.22161226672995
O          -2.07394782559950   -2.61608937349812    0.73953710558371
H          -2.02501031626929   -3.53279336116321    1.02022683805788
H          -1.69320614583052   -2.06525874996731    1.49406197696719
N          -1.86698855805623    1.16905599622169    1.63619956202722
H          -1.79737219575228    0.86082469484554    0.66810937074640
H          -1.28194725609484    1.98961295145997    1.73533486856996
H          -2.82507724318932    1.45148562742375    1.79932062021372
