    26
        -50.45376164  Gyration_radius:  2.4697315228 Dipole_moment: 3.956
 S           0.13043851965401    1.06630076213844    1.19799524504766
O           1.42344146761424    0.93332244788209    0.57415534250881
O          -0.02646413939082    0.30115477594347    2.39794019760662
O          -0.95533288522563    0.65596695660463    0.17107183215216
O          -0.20940634930311    2.52511007707888    1.44929801168460
H          -0.37598538329887    2.94976194139115    0.52209875548841
H          -0.90438858236314   -0.35792466293269   -0.00810203323911
O          -0.73358153167278   -1.83756513367176   -0.17762682568524
H          -1.17087683446433   -2.11120639119998    0.65267700045257
H           0.25028277066697   -1.96728640417839   -0.01025609907090
O           0.95619544571334    1.62092324042968   -1.99072723464360
H           0.49893564508556    0.83673658879735   -2.34476410204078
H           1.33678999512134    1.34706596266742   -1.13902375951183
O          -0.50763775067336   -0.62714487766268   -2.70710363759894
H          -1.39259343045554   -0.46643506873917   -3.03811676087557
H          -0.60078462462351   -1.21363120244034   -1.94372986852205
O          -1.49886941142739   -1.93989618074584    2.38204361917401
H          -1.02729216359047   -1.09066596119428    2.49288993413435
H          -1.31349372655103   -2.45389751350525    3.16936440535954
O          -0.68648274022225    3.31016852350070   -0.89425451667301
H          -0.02897944201581    2.76642293694666   -1.42139501707681
H          -1.54743249702439    2.91977422572937   -1.06453655802559
N           1.84231505029593   -1.87091670653550    0.36454210464570
H           1.89764087464140   -0.86154803361772    0.50149033713408
H           2.50274396625842   -2.12181968332744   -0.36046504850136
H           2.14081776722799   -2.31277061936595    1.22453466605888
