    26
        -50.46966701  Gyration_radius:  2.51747486697 Dipole_moment: 4.957
 S          -0.19720994580663   -0.73145876530953   -1.30104774642119
O          -0.52791414599476    0.67436003546108   -1.47172381868105
O          -1.03787974316446   -1.38117414999884   -0.31332287565991
O           1.23292394818986   -0.89137299246413   -0.99207352755957
O          -0.46067679582294   -1.46536281790652   -2.65592549980071
H           0.25755134763829   -1.16926382608854   -3.24641962063628
H           1.31403087694977   -1.50204037275242    0.65091659948925
O          -2.07398748071019    1.23098446232197    2.46694726174540
H          -2.39683937925843    1.07966155055865    1.53454912318162
H          -2.60855729271072    0.65769085589789    3.01853332312423
O          -2.78107988279392    0.58513062723919    0.03507190729624
H          -2.34496116103449   -0.28629952283392   -0.03591360828200
H          -2.29750367953706    1.10862783316371   -0.61737769912511
O           0.85668060537334   -1.68449400041782    1.49562793311444
H          -0.03606102791840   -1.89359439813299    1.17152872698474
H           0.68792693446652   -0.21552816727495    2.08061837258220
O           1.36061441823253    1.77891750474608   -0.07546748384047
H           0.59874748590722    1.52600177478291   -0.65285725154818
H           2.06428762665514    1.19078099322879   -0.36563505571818
O           1.95248538972309   -0.73135364404754   -3.50943313015340
H           2.52290675783103   -1.46130814028563   -3.75997602025657
H           1.91956149762683   -0.72361040243720   -2.53085115910987
N           0.54298051573684    0.82581718356608    2.25421645607786
H           1.06932065688381    1.14358685525209    3.06092039961183
H          -0.48919375074897    1.01445115247806    2.38698748085655
H           0.87184622410457    1.32085034110942    1.37210691265541
