    26
        -50.46944121  Gyration_radius:  2.45717265803 Dipole_moment: 3.838
 S          -0.25149674220270   -0.48043675139378    1.52122701702864
O          -0.06897548736600    0.57092021997468    2.49608127999648
O          -1.01518094624509    0.01752029195666    0.36761819046970
O          -1.08921809928170   -1.64565125907999    2.14138839479736
O           1.00056268509559   -1.08474134664820    1.08146347538029
H           0.49631056211254   -2.09707224058862   -0.23391500881111
H          -1.87947389203089   -1.19474328583834    2.49965760980547
O           0.16747102121076   -2.44760425687706   -1.08229944687841
H          -0.78592488697536   -2.34482419452016   -1.05476584812979
H           0.90753755794372   -1.44836782068835   -2.32429275858932
O           1.18335111476640   -0.60836950013627   -2.75306138874841
H           1.88931468366724    0.06139658103537   -1.60866695880619
H           0.34850074487460   -0.09782888430356   -2.81900937116983
O          -1.09078968862917    0.71536247232248   -2.24390765621088
H          -1.16894116136360    0.36704544230511   -1.33741188641487
H          -1.07068483648396    1.67042722952462   -2.15721844021653
O          -2.71447789784215    0.35857860154021    2.71532202530629
H          -2.94807052695941    0.62923642221386    1.82315702692434
H          -1.82022470004679    0.71030043990067    2.87463301177712
O           0.43411065176440    2.23703499870621    0.26979214524309
H           0.57785973722284    2.40153237246603    1.20686212592413
H          -0.21103384521061    1.49876909452973    0.26464345892375
N           2.23518288197072    0.47087879651899   -0.65488383496721
H           1.71304209635039    1.34960199972032   -0.43704096829099
H           3.23987640355334    0.60474235092552   -0.63564726533808
H           1.92137256005082   -0.21370778354565    0.08027506096082
