    26
        -50.45649272  Gyration_radius:  2.46037489468 Dipole_moment: 2.088
 S           0.34967898848722    0.31336376213879    0.53277819320102
O           1.66382628837296   -0.26970929204345    0.32744385954384
O          -0.32004100524080   -0.25636035048140    1.68786807347669
O          -0.47655679820536    0.15435737631019   -0.68574032611526
O           0.47133561088697    1.83216319751149    0.77232733009886
H           0.58903442395496    2.24316137230499   -0.15307891053616
H          -1.12417461527379   -1.10625194006958   -0.71879641717405
O           0.66064164523786    2.45172465671649   -1.67605661733145
H           0.05564362781482    1.72021281353919   -1.85674024866820
H           1.57064301792410    2.09176436476911   -1.86249105824399
O          -2.69175577849818   -1.47794796312451    1.60263753953678
H          -3.21327206294511   -0.67836733092127    1.44160920282347
H          -1.84714971955172   -1.12795080573883    1.95087266914182
O          -1.48729093501634   -2.08707063196992   -0.51912877919819
H          -0.64288655963664   -2.53149901553784   -0.15106787964459
H          -2.11442387532460   -1.93671233707580    0.31087716886185
O          -2.55690258801123    1.25961820213222    1.19767122280454
H          -2.43726465447868    2.10244372406236    0.75836852635052
H          -1.67161950169885    0.95334120877357    1.44091559367371
O           0.73905551827670   -2.72540168537020    0.56574131391857
H           0.63006898923688   -2.80688710331072    1.51700262037655
H           1.22017872603374   -1.87553654959592    0.43350040027603
N           2.96665782571817    1.12425639812671   -1.80275539043945
H           2.64924896287780    0.53762672544748   -1.02923752911569
H           3.81995850844765    1.58207869250913   -1.50799668463143
H           3.19736597061323    0.51358251093845   -2.57652387296157
