    26
        -50.44524287  Gyration_radius:  2.71311979555 Dipole_moment: 5.513
 S          -2.15247777778568    0.01002156803082   -0.91204952445921
O          -2.45038511555183    0.76718724031104    0.26062498427885
O          -1.68957094120742   -1.33039495645487   -0.69589813504417
O          -1.10951428066062    0.75009772431404   -1.78386378280634
O          -3.39298829814688   -0.00004940387690   -1.83863544681201
H          -3.07184900193214   -0.39698853390799   -2.67966470310552
H          -0.26918571948632    1.05137973800472   -1.17650446887836
O           2.48070302795988   -0.67874923401177    0.17955911334934
H           3.35949007101667   -0.82185154162168   -0.17283054526648
H           2.58961043868457   -0.31361848321299    1.10394748589041
O          -0.34629807422416    0.83816958954637    1.97370868160274
H          -1.24846093002192    0.97966212153007    1.64670993688047
H          -0.21904435903363   -0.14068776424427    1.91186133405272
O          -1.97733891907603   -0.60672998325665   -3.96099085231238
H          -1.30157533667700   -0.19583385198147   -3.40098144571740
H          -2.13426498012063   -0.00912414317264   -4.69651227075071
O           0.79089088434479    1.34943564982351   -0.32805521689810
H           0.38832108790586    1.31123314884114    0.58574742124208
H           1.43017900337265    0.60406945243505   -0.33909100426275
O           0.06513841027267   -1.70717156398131    1.31803267278976
H           0.90084306003835   -1.65329277484168    0.83644905713625
H          -0.62927145828572   -1.74559131535186    0.63575814207383
N           2.55666697919230    0.38180579240538    2.63465419415906
H           2.57352065649180   -0.33936581396207    3.34538433911568
H           1.63120173815159    0.80073868344835    2.65762065189649
H           3.22565981476107    1.09564864519474    2.89501938183019
