    26
        -50.44524287  Gyration_radius:  2.71301192683 Dipole_moment: 5.516
 S          -0.04817791183508    2.12231630768134    0.97924638919183
O           1.21530969848464    1.87414102090702    0.34698201032150
O          -0.31468325517496    1.37166249670020    2.16361406109109
O          -1.16740297339654    1.89933877454147   -0.06622887795614
O          -0.19839919486729    3.63171508506499    1.29012949793561
H          -0.15676190033755    4.07185076530314    0.41116848672297
H          -1.34687503861751    0.84225421656283   -0.19424909575666
O           2.03198484102691   -0.69340080693708    0.21588939814467
H           1.71138261246964   -0.93572508615378   -0.66261441900360
H           1.92257815289904    0.27269805962906    0.27825474122754
O          -0.53784664018103    4.26072619069212   -1.23288538920001
H          -0.81473966417230    3.33204006508970   -1.23634869566865
H          -1.32583889466859    4.78943617938820   -1.38215621365358
O           0.38014759794068   -1.71792112807650   -1.88375014696637
H           0.34163377280493   -2.50754247382102   -1.27164029454606
H           0.28327510565793   -2.04825908577354   -2.77729994300872
O          -0.06259101242110   -1.29751105867382    1.74078853146292
H           0.81183587144135   -1.17860488493258    1.29416916977914
H          -0.19164238779276   -0.46987395907121    2.22989939067539
O          -1.46885995613080   -0.53552406793382   -0.33137556961391
H          -1.07012238196763   -0.89910441979935    0.50972771679403
H          -0.85929331249376   -0.84286609007015   -1.03730376911557
N           0.21988729491687   -3.68361231615561   -0.07591328631643
H          -0.04408486160135   -3.13354878164926    0.73666212555494
H           1.13143223928020   -4.08004847038927    0.11758272563388
H          -0.44214781125517   -4.44463655213795   -0.16234854373596
