    26
        -50.45894419  Gyration_radius:  2.43165240013 Dipole_moment: 4.932
 S           0.78999286912280   -0.94536958482844    1.38160922668356
O           0.52206282202182   -0.90425431506353   -0.04866825340887
O          -0.08837119587939   -1.82588417670573    2.10448807181745
O           0.56402729720777    0.53820797251372    1.89783269684781
O           2.22039490480112   -1.15465496146616    1.62404751600812
H           2.62891124329023   -0.11258447498441    0.76012656025592
H          -0.17603065427183    0.94831036320356    1.39392485927025
O          -0.44264855407533   -0.50001243601191   -2.41794975603255
H          -0.35385667307758   -1.28043615679493   -2.96608791427817
H          -0.11442189943997   -0.75767783505220   -1.52548279603517
O          -2.64347648311510    0.01116163485550   -0.81000364164928
H          -2.05667641080777   -0.14793871644285   -1.56763439243098
H          -2.58658042380433   -0.80874591634403   -0.27199110586014
O           0.87539029549878    1.71531250840634   -1.30884650281135
H           0.50771204764512    1.03991809886096   -1.90137382283235
H           0.15297584704377    1.90130343197074   -0.68424286808985
O          -2.28479243582863   -2.18809573500605    0.68699760768734
H          -1.42335248340739   -2.09097246150914    1.15132967618349
H          -2.90668475018980   -2.47957926937330    1.35590545079980
O          -1.25196262956498    1.76853993813411    0.44261815461269
H          -1.83034141482325    1.08871354398484   -0.03795080143652
H          -1.85165363886500    2.35050962626595    0.91111232652811
N           2.89270202287734    0.75548976100674    0.10654539587581
H           3.18237668097420    1.52346846274665    0.70562227964657
H           2.02908056582608    1.05908367617806   -0.45744703754567
H           3.64522305084408    0.49618702145639   -0.52448092980493
