    26
        -50.45286229  Gyration_radius:  2.45034682768 Dipole_moment: 5.117
 S           1.80667665305346    0.93780771682255    0.18226254649905
O           3.02386070412666    0.96930229881140    0.91484348634855
O           0.59994831732777    1.04458638522989    0.96543936711007
O           1.73710951157716   -0.38443190657397   -0.64420799631090
O           1.77921164235712    1.99943126219762   -0.92141350021196
H           0.86206531666271    1.94926631621276   -1.35315432892641
H           2.08208981523130   -1.10245487049707    0.01121970807001
O          -0.60487845923132   -0.87927204643984   -2.02610923236515
H           0.30813676685580   -0.97091123971484   -1.72081847374240
H          -1.15282694864316   -1.21256715543727   -1.28835330657118
O          -0.49716263316714    1.72515538704677   -2.06511876144784
H          -0.62493595042194    0.73032626965962   -2.06604752986273
H          -0.38201036337745    1.97811612912743   -2.98390330863075
O           0.06454814602057   -1.33944536462152    2.11688597113640
H          -0.63951186991081   -1.64257918494848    1.52064844085705
H           0.18211023763330   -0.39915760539550    1.89584506879270
O          -1.99480237302098   -1.52031219061481    0.22799351554114
H          -2.84225585260821   -1.96481701345289    0.26932982429721
H          -2.16819786109780   -0.54145314813988    0.36600960115849
O           2.47700976524317   -1.85357626742308    1.23902585091491
H           3.03447211059250   -1.19173421237625    1.66318441905354
H           1.59899920585919   -1.83764021393456    1.70826781019629
N          -2.23152693316006    1.10612035928023    0.47921189828824
H          -2.36606393421644    1.58611667463288   -0.40269180336698
H          -1.25403666166612    1.24365345103588    0.73379851536134
H          -2.79802836201137    1.57047016951682    1.17785221782205
