    26
        -50.45278995  Gyration_radius:  2.46772272031 Dipole_moment: 3.459
 S           1.17278462391566   -0.60956851430383    0.91616841040051
O           2.23969977412513    0.33587043582487    0.83231151963795
O           0.52181608821456   -0.88923134641177   -0.35705492884238
O           0.14486599195740   -0.22683453408070    1.91643247456159
O           1.76216695363496   -1.97375162313042    1.42839743341920
H           0.99094138838408   -2.55273190617492    1.46325719390706
H          -1.07358137545522    0.46654984284226    1.43096822443357
O          -0.88915812416579   -2.60665353803332    1.91695773574450
H          -1.09032414918609   -2.97002100163607    2.78142382908772
H          -0.60391097305211   -1.67513969283185    2.05977237980949
O          -1.93481020616936    0.77637674730226    0.95280930505471
H          -1.63695254849527    1.56779518291410    0.30992628085945
H          -2.15293336957617   -0.05326776595582    0.35708808528969
O           1.38382183039484    2.29356607422554   -0.81296005895222
H           1.76817108090862    1.69548786735904   -0.14520171894907
H           1.46440024072334    1.79140249517475   -1.65736411933995
O          -2.03252044484536   -1.37484263279102   -0.35040654714535
H          -2.04746889958731   -2.07623259854861    0.31502502319971
H          -1.07144391846189   -1.26029031633256   -0.55192537066050
O          -1.12733180350040    2.62123484663717   -0.51821836239077
H          -0.12569095156110    2.48384050155693   -0.66021842521362
H          -1.21982172277046    3.48941493535404   -0.12145303803458
N           1.41196229668604    0.44498232320516   -2.78889882362255
H           0.72991395315702    0.37657636522659   -3.53344853240570
H           1.11891894442000   -0.17955991723743   -2.03947944034006
H           2.29648532032236    0.10502775984540   -3.14390848950469
