    26
        -50.45652649  Gyration_radius:  2.5211454583 Dipole_moment: 7.722
 S           0.81508469909519   -0.19424865151453   -1.16499177033617
O           0.30256797165436    0.75179469868181   -0.17095347894695
O          -0.09869489248114   -0.42539442471937   -2.24319670810581
O           1.05422866060472   -1.54782858832484   -0.37418625490445
O           2.17861317429062    0.16520875206223   -1.56333243700894
H           2.87843893103224   -0.07265066982496   -0.36285103396625
H           0.29928150307674   -1.69980917447404    0.25379792657887
O          -0.89298817269774   -1.81054884664077    1.33738869269939
H          -1.19234866723316   -2.71360504586116    1.45974449017661
H          -1.51692767287755   -1.41981934984288    0.64940289076001
O          -2.22491957086419   -1.01331911632776   -0.70431505918615
H          -1.52989657293608   -0.83445129787887   -1.36509833166838
H          -2.78247816771571   -0.20521595923187   -0.68596962312584
O          -3.54407972817382    1.33276947801023   -0.92090406456759
H          -3.76674119227775    1.40019549760048   -1.85097834522440
H          -2.78322958014606    1.93896839876507   -0.78431597862552
O           1.19062040080282    0.03609461119969    2.14162918035291
H           0.60179175915882   -0.70654834336613    2.32298270002333
H           0.77032875945231    0.46896758873598    1.35692802227037
O          -1.32811475686629    2.81476997816411   -0.55695224963397
H          -1.28521424706553    3.24765622702403    0.29767658796848
H          -0.70049715832124    2.06428717612190   -0.50793777216283
N           3.31904762166725   -0.33185959043600    0.63577752806012
H           2.51823454416321   -0.23478517825884    1.34217642255416
H           4.09009590553018    0.28784747549084    0.86467704656934
H           3.62779642925989   -1.29847565504505    0.59380161929043
