    26
        -50.45441775  Gyration_radius:  2.49236712538 Dipole_moment: 3.575
 S          -0.43092700815715    1.44844711843392   -0.40684696579368
O           0.57215255287853    0.84746861417002   -1.26141341101369
O          -0.53278330582338    2.86844387756108   -0.45949268010705
O          -0.08682889026555    0.99615162462093    1.04274469313217
O          -1.78341288789930    0.82825428108739   -0.68392062082215
H          -1.76726403801224   -0.28283946505241   -0.64001023365138
H          -0.75797198917480    1.54079134381549    1.60226355065272
O          -1.63950020052890   -1.62286636949372   -0.57290308773835
H          -1.00321242213417   -1.83590650942180   -1.28505060851353
H          -1.13398404397859   -1.78872416874254    0.28716214331572
O           2.89473184488512    0.14638181382070   -0.06579135274601
H           2.06028533896054    0.47726939161541   -0.44267070157963
H           3.60171627348393    0.60982910712807   -0.51688883991412
O           1.99675919930360   -2.45102348576959   -0.08076049556559
H           1.56946323101033   -2.39992190263737   -0.94567588320909
H           2.49326473239913   -1.61973504526685    0.01457264697822
O          -0.07137512163196   -1.80432672751807    1.46475188114724
H           0.12446848740095   -0.86841118265700    1.59659184961572
H           0.72915873273597   -2.18351186699152    1.02621179800929
O           0.43180922792239   -1.58417462657427   -2.30746826613823
H           0.54481273459802   -0.66417008389441   -1.98252405168816
H           0.42002569515935   -1.53886431642839   -3.26445997678109
N          -1.88192887564351    2.53206929566897    1.98152136890002
H          -1.71500652249276    3.11779453375785    1.16662845934324
H          -1.82374127489624    3.09432609176640    2.82038780012270
H          -2.81071145033785    2.13724867719350    1.91304099418492
