    26
        -50.47217136  Gyration_radius:  2.47506392043 Dipole_moment: 1.744
 S          -0.48331654332999    0.71784664518429    0.85723435804824
O          -1.26260054672409   -0.36553219495064    0.28760968587736
O           0.20772839363369    1.47127674936428   -0.19367064182177
O           0.45896658446843    0.25583590377134    1.86677566281407
O          -1.49525109001359    1.69099087020556    1.53291808623143
H          -0.92407011784142    2.25456655832860    2.09679093567255
H           1.43499862561491   -1.09171786683704    1.34358823792945
O           1.78882477601027   -1.80773916058946    0.77944811783860
H           1.05931381917210   -2.46065954033436    0.74078989939778
H           1.75775513888855   -1.09383944020659   -0.59740251030104
O          -1.23356521618312    1.61292819037444   -2.45294979810734
H          -0.70741572520147    1.67546232676820   -1.63019867093439
H          -2.06546306451239    2.05090117130839   -2.26853741654690
O          -0.90261146706805   -1.06894151017561   -2.27609614807077
H          -1.12193753746551   -0.21698161839090   -2.69602228050994
H          -1.20759133318699   -0.94000968211305   -1.35571848720535
O           0.45029696017525    2.58472259860458    3.05426669369031
H           0.73480996988931    1.70840464564451    2.72275942440605
H           0.35248510728817    2.49894375819259    4.00552032316035
O          -0.60906858421561   -2.97559393153587    0.44860986687370
H          -0.97092879507583   -2.07577579250031    0.55324034506306
H          -0.89430782852210   -3.27354985889072   -0.41808205137476
N           1.51055085012904   -0.45322974252419   -1.42609974040672
H           0.65756435157589   -0.84144248890367   -1.92991454986015
H           2.29435940071749   -0.30012396610712   -2.05073850422164
H           1.17047386176591    0.44325735629701   -0.99412084766845
