    26
        -50.46567400  Gyration_radius:  2.5194856129 Dipole_moment: 4.990
 S          -1.20197612001430    1.21491367105363    0.07464613376515
O          -2.06366090362643    0.64835963572659    1.08634092161456
O          -1.20869544074123    0.40336656655701   -1.15472399814768
O           0.17243027343148    1.38922116405431    0.53922903246164
O          -1.75099703443358    2.61841052994352   -0.29767357198963
H          -1.04398834312522    2.96425930328842   -0.88955007625620
H           1.08888407301955    0.20557000191286    0.36994114967202
O           1.43948814625976   -1.83942793569108    2.67419869277137
H           1.52345481413511   -2.77057398063500    2.88503758388172
H           0.47970380906592   -1.66021487707355    2.59712927166512
O          -0.55209563914509   -2.07582041045713   -0.51237849458761
H          -0.92410346008324   -2.17519257032424    0.37742552944126
H          -0.96312436732192   -1.25710864106626   -0.86504604877650
O           1.10483204566000    0.61721513142497   -2.31201796587984
H           1.00953166198906    0.23698008722270   -3.18717090008637
H           0.22869620783304    0.48824067515137   -1.86834987599110
O          -1.21743451954872   -1.55114894506237    2.14268571868850
H          -1.88321785147522   -1.77738805803918    2.79469478526059
H          -1.50948576723933   -0.67242396696582    1.77469958226914
O           0.14368440679287    3.18301065322662   -2.04897831670779
H          -0.29402872501439    3.22596711763424   -2.90250311653324
H           0.68700035121504    2.37061071709670   -2.05371597530877
N           1.60346634448696   -0.72790951809808    0.22277733883974
H           1.86911116692040   -1.10074582779050    1.15285600746445
H           2.38586366501932   -0.58086743989721   -0.40564701811266
H           0.87666120617218   -1.37730309360724   -0.19390638962619
