    26
        -50.46878256  Gyration_radius:  2.45421275796 Dipole_moment: 4.631
 S           0.85267815504627   -0.04421751324383    1.27417054458340
O           1.78214111637411   -0.18300494048724    0.15756188196446
O           0.22897715660377   -1.28498934904657    1.65412077622842
O          -0.13677605974478    1.00632001515593    0.97926077474035
O           1.71244987753385    0.48502545546009    2.46952996151648
H           1.05189894396250    0.66490596815830    3.16219147269126
H          -1.43727542170983    0.41496093259680   -0.06698977516871
O          -1.18221700221024   -2.54020143384474   -0.14563163768545
H          -0.65518867043261   -2.12221641664972    0.57794003369725
H          -1.53104879363294   -3.35641386870999    0.21545612484110
O           0.82305634782673   -1.75981212236448   -1.89296193555583
H           0.11001381054303   -2.23824227768143   -1.44044441902699
H           1.33215940590632   -1.33576770627997   -1.18310717966545
O          -2.00616824830873    0.03215180246955   -0.75712823727235
H          -1.96742640892069   -0.92648893922557   -0.61268160028537
H          -1.21692677594685    0.25948421922923   -2.25297140500926
O          -0.45028295403928    0.33799271544790   -2.87332631038978
H           0.04229310078084   -0.51136210108203   -2.74200390193599
H           0.37625073090843    1.23886715985219   -2.11203812794950
O          -0.59182135083509    1.19384000151278    3.58350329204968
H          -0.82974880172086    2.07876283758271    3.86932081242213
H          -0.71455210244906    1.16469017762712    2.61665730145903
N           0.97845670956851    1.77728906940795   -1.33368902867499
H           1.56443915508977    2.51547077553911   -1.70668701288810
H           1.52845642789972    1.02427503859546   -0.83262100743586
H           0.33616164191623    2.10868051996114   -0.60743138723454
