    26
        -50.46773899  Gyration_radius:  2.4086880745 Dipole_moment: 5.704
 S          -0.29031013240547    1.29078570580768    0.61640119821021
O          -1.24067200481905    0.21807434672860    0.32298840882498
O          -0.86722625894422    2.59897229822998    0.47131738320563
O           0.87265421374692    1.14274722549367   -0.45515470462627
O           0.40274183664336    1.05467208877264    1.87909745702394
H           1.55232737898402    0.14882068706231    1.55224581661726
H           0.43860545252527    1.13600690815917   -1.34778072266417
O          -0.81855413457741   -1.51507705042882    2.29601267140721
H          -1.12924704755871   -0.92761229324063    1.57757805012210
H          -0.47263583314247   -0.91419930273399    2.96030956929310
O           1.00693926478243   -2.67964711656559    0.74477022584436
H           0.61354168896669   -2.50617196465171   -0.13316729570192
H           0.27808164439035   -2.49559871407151    1.38233015636451
O          -0.39156991682410    1.09556685223475   -2.73645706037582
H          -0.13178939696405    1.79618835762809   -3.33774136354822
H          -1.27740411231292    1.37160495403966   -2.36419455299793
O          -0.19208357038060   -1.54393137128523   -1.37915097048356
H          -0.67634276569624   -0.94603398440797   -0.77567736909881
H          -0.10965602198898   -1.05486137657822   -2.20159185056835
O          -2.51396684159799    1.91464516860295   -1.46247919795265
H          -2.88853085855477    1.13307533628265   -1.04492814563174
H          -2.00183998333239    2.34843751678695   -0.74373467030931
N           2.31388469126731   -0.50593598107890    1.15503366140129
H           2.57874153895538   -0.09886936193878    0.26002284988164
H           1.83487035593968   -1.48777717455191    0.98262388428765
H           3.10944079286893   -0.57388174430436    1.78132656148128
