    26
        -50.46106587  Gyration_radius:  2.46723454088 Dipole_moment: 4.057
 S          -1.03929692725577   -0.42804744294677   -1.43802141476437
O          -2.24899401459416   -0.42152911749562   -0.66396373087726
O           0.07256753681008   -1.04295829956812   -0.68221428745800
O          -0.63030732621006    0.89421197710319   -1.90956886129958
O          -1.27434803252751   -1.32837828001503   -2.68740970768712
H          -0.48300295648752   -1.15861772234627   -3.23621703560036
H          -0.10552978634386    2.02173390249788   -0.73990081007798
O           1.84281226644084    0.42245466647037    0.33912798075930
H           1.23531194761183   -0.23065180356452   -0.16510072996404
H           1.77674910557491    0.12038037173952    1.35667835405504
O           0.25286532492811    2.31924593497754    0.12508963199293
H          -0.43655878957318    2.03085294014830    0.77142170082703
H           1.28459751349314    1.33092979789255    0.26807205709332
O           0.80859545323097   -0.15695695104440   -3.81479663871719
H           0.68301885963908    0.27617457405458   -4.66197756637273
H           0.44551938430933    0.44811501295424   -3.13490922332027
O          -0.81884313285402   -1.66594031619940    1.73150047891222
H          -0.50011439129813   -1.53813237532175    0.80996161579870
H          -1.69619796053705   -2.04271839551761    1.63936100401908
O          -1.57383088001140    0.99484706571260    1.50202368189429
H          -1.26438446788979    0.17531763133495    1.91868632815214
H          -2.04438777427809    0.67056011991120    0.71139363925076
N           1.50673727170021   -0.32839443505146    2.75616174649113
H           0.72881613940358   -0.97641547327526    2.64402509397956
H           1.20679328333003    0.42957135517627    3.35634308454851
H           2.27141235336760   -0.81565474762142    3.20423359835125
