    26
        -50.44925290  Gyration_radius:  2.70503967534 Dipole_moment: 1.470
 S           0.13437866495081    1.19387726645525   -0.18381084277112
O           1.33147869062228    0.39960009850203   -0.08570911334322
O          -0.76423568052722    1.05510647527336    0.92304505248123
O          -0.57856210187070    0.88064472930393   -1.51240909609622
O           0.49257493853298    2.67085812066341   -0.35558971611523
H           0.87401826098703    2.76839531369753   -1.29477621559459
H          -0.94197192024926   -0.09287104797338   -1.49507421252500
O          -2.60805403623033   -0.99378867901732    0.90406661410535
H          -2.27701486408293   -1.64247209950107    1.56727567896616
H          -2.11308447048119   -0.17559183577842    1.06812995058739
O          -1.52611593017982   -1.43094308028402   -1.37645216580994
H          -1.98331218382702   -1.36998467874754   -0.47286710006676
H          -2.22611165613204   -1.55564381056010   -2.02154221704514
O           1.34184076507064    2.63850888769128   -2.75046482392099
H           0.55591487011828    2.32511277345519   -3.20662087542254
H           1.95995858066938    1.86584969145099   -2.71999117654280
O          -1.45309041133474   -2.52333910864908    2.78476310430061
H          -1.79358704220012   -2.36015565723804    3.66563805864842
H          -0.59396446262416   -2.03463860255691    2.72208262162392
O           2.74489815467647    0.44943475238018   -2.31182342174004
H           3.67228638498232    0.48151357579465   -2.06964728339608
H           2.24782779163148    0.28970001171490   -1.48012377038043
N           0.69934643266183   -0.91539086729324    2.51937463728431
H           1.31254041797928   -1.23318300876448    1.77747641675412
H           1.28716843565665   -0.57623826031954    3.27153581662226
H           0.20487236119971   -0.11436097969764    2.13351409939350
