    26
        -50.46509282  Gyration_radius:  2.52596450656 Dipole_moment: 3.449
 S           0.16936440482265    0.99621256857392   -0.87756500545733
O           1.24482952946945    0.92865647257948    0.11162497174912
O          -1.13380774781681    0.99657290848561   -0.24928279984542
O           0.31131499993436   -0.09237669951162   -1.84871611513152
O           0.30578899082825    2.34609381788046   -1.64580384772653
H           1.03205039378494    2.19832194977821   -2.28797753721204
H          -1.78060823645911   -2.08491853815272    0.73829289916625
O          -1.13941380729861   -2.19999194002628    1.47335505350446
H          -1.24335588677880   -1.36201146275234    2.00168637444894
H           0.10178878851952   -1.98481974752298    0.76799432348667
O          -2.54849048533061   -1.25171797831836   -0.58966864180452
H          -3.46153090573993   -0.99456196105671   -0.44850577647728
H          -2.03537898964777   -0.41785786667361   -0.59110353443891
O           1.95746223412731    1.23799533278253   -3.38238553585435
H           1.65592270266651    1.27079983791325   -4.29308252665856
H           1.44589863599623    0.52605412511134   -2.94373636747416
O          -1.33621076872117    0.24663701834960    2.37946074400499
H          -1.39122256151598    0.63936363563791    1.49106853931587
H          -0.49181121482471    0.56856967492988    2.74429549931327
O           1.15853245197430    1.28877525219300    2.75830724177670
H           1.26816805273259    1.22541421831150    1.78883950465546
H           1.23975290034743    2.21828362716125    2.97665119127544
N           0.98129169129442   -1.68797088309226    0.14354934941727
H           1.71448918002804   -2.38938135835806    0.14557155760834
H           1.32706687738458   -0.75495272323144    0.45347799134613
H           0.64810878024599   -1.46718926099646   -0.81634757297703
