    26
        -50.45655442  Gyration_radius:  2.5178658368 Dipole_moment: 2.671
 S          -0.75930971279878   -1.26178614524363   -0.65700025771336
O          -1.67004728728563   -1.61922779462834    0.39377628750625
O           0.62156577152602   -1.54821807529048   -0.34598183518769
O          -0.90144551188589    0.22887766788349   -0.99781587749546
O          -1.17966127810442   -1.94255914037340   -1.95149919583373
H          -0.72194813448362   -1.41654373840690   -2.70679330426165
H          -0.29964591559476    0.85866969400990   -0.39725468112415
O           0.50758689270776    1.66133158537568    0.47412103849238
H           0.99216263096068    0.99408489838070    1.02949955772966
H          -0.16258562736073    2.03927293626536    1.08693215984261
O          -1.25736929129065    2.10774193941937    2.43183037115341
H          -0.89429799889440    2.47063689196787    3.24169336532325
H          -1.38740555140639    1.15268063327170    2.58926838383677
O           1.35771107084682   -0.35347421353220    1.93956451301458
H           1.26623063247760   -0.96906489261505    1.19049713883710
H           0.57610439311394   -0.50418620878464    2.49076534114074
O          -0.06061421693892   -0.43242597390226   -3.64019556936256
H           0.77495897055579   -0.15755118946258   -3.14804801996029
H          -0.64394173621563    0.33019457164116   -3.60749125082348
O          -1.30662389439495   -0.60640826600643    2.78379371075129
H          -1.87170920185498   -1.08504739256444    3.39297409128194
H          -1.48626945489567   -0.99261614043264    1.89390718144912
N           1.96455298397262    0.24243996249995   -2.09126740310439
H           1.75174010987894   -0.47887274050463   -1.40407841623923
H           1.85572082829994    1.13743166723438   -1.62895546090003
H           2.93454051984265    0.14461947351299   -2.36224185819523
