    26
        -50.46949701  Gyration_radius:  2.39083765836 Dipole_moment: 9.055
 S          -1.58829521338337    0.10552474340085   -0.91811463313448
O          -0.63843252086550   -0.99593024644984   -0.62914022416655
O          -1.31641103616279    0.68968907216897   -2.19873580023297
O          -1.56309211172589    1.05785960979817    0.18948697793091
O          -2.99879607107626   -0.55326269542139   -0.94973162357286
H          -3.14920437794777   -0.77532506924959   -0.00991380740920
H          -0.17838900627019    1.90732460330342    0.49577538996355
O          -2.78871929856641   -0.69592012442014    1.70036562915874
H          -2.04334902168075   -1.18185038973961    2.07387896061807
H          -2.41326692365572    0.16040881453037    1.42280566663956
O           1.10834737516569    1.81792831415288   -2.06246107155200
H           0.18428857787671    1.56223317778545   -2.25634266217470
H           1.59777171882099    0.98387272190111   -2.06461482994675
O          -0.05165140054960   -1.64539346759516    1.77099525877756
H           0.07024834743072   -2.59636477370615    1.76578063801723
H          -0.35285874767294   -1.40352923727582    0.84629937105014
O           1.81524283273610   -0.84514192944200   -1.44299649810388
H           0.84656774593959   -0.90944793653575   -1.22604986082660
H           1.97671846130058   -1.49378751297057   -2.12922209914254
O           0.76227605386483    2.20381283647924    0.51115608024674
H           1.47108294756744    1.03214736399551    0.92973534803425
H           0.98513740535499    2.28438044156534   -0.45244869766359
N           1.97684910412274    0.04939952676573    1.13424922402650
H           2.21140838651304   -0.34271723451317    0.20793178449188
H           1.27598697644231   -0.58215463029234    1.57818182844852
H           2.80053980643577    0.16624400176160    1.71312965050604
