    26
        -50.45106223  Gyration_radius:  2.46217882322 Dipole_moment: 4.660
 S          -0.91108950643258    1.07759236976588   -0.83151843737619
O          -1.50957187632573   -0.20115618607423   -0.51447343922627
O          -0.40829591763623    1.20190267409444   -2.15896003755354
O           0.19557639213135    1.36386789224293    0.19674261538069
O          -1.93321936627809    2.18391225814616   -0.54815034387557
H          -2.20084291812380    2.08929512943313    0.41624529868544
H           1.13707268583842    1.14936018450335   -0.16694580853839
O           2.47301076566141    0.83276329893358   -0.74119790029865
H           2.23952813397777    0.21789359339531   -1.52019634382332
H           2.83512551861125    1.62903694525195   -1.13554450190556
O          -2.61438231474257    1.72841635293386    1.89353954903177
H          -3.54350065452487    1.48772302297700    1.92420543016637
H          -2.10421974043805    0.92571157019017    2.13805226060279
O           1.60708820726594   -0.58730017979489   -2.68230410549398
H           1.19853751770291   -1.35901984403096   -2.21744948047655
H           0.86717648594832    0.00801369202746   -2.87407422931659
O           0.29255055788666   -2.22840230145054   -1.07396204373590
H           0.79445415583994   -2.09553987666787   -0.23802684123682
H          -0.49207871279677   -1.66958194705650   -0.98705922314753
O          -1.37332890741287   -0.65032821478614    2.06841917711469
H          -1.37189655293023   -0.57757573185093    1.08834878750998
H          -1.76189095732271   -1.50334556589771    2.27309451435744
N           1.53872006446157   -1.40473547766694    1.22052309916138
H           0.81662443349158   -0.91986432397401    1.74276428817976
H           2.17832449166521   -0.70525917208580    0.86259417527590
H           2.05052802449917   -1.99338016241729    1.86533354063175
