    26
        -50.44968433  Gyration_radius:  2.50449110428 Dipole_moment: 5.245
 S           0.48166134825327   -1.08347155772248   -0.97855879128186
O          -0.95182809460545   -0.91875336839800   -0.79928430926450
O           0.99917668506850   -2.33423134172940   -0.53026989619055
O           1.16586352255267    0.07596660476712   -0.24002329364875
O           0.81465103732358   -0.85206176557299   -2.44776432214253
H           0.59429940201346    0.14591456507418   -2.63979874448616
H           1.90870539480460   -0.32785824239427    0.37631502774078
O           2.70896523923303   -1.19468550635656    1.23183398802158
H           2.42531250976580   -2.00514653313066    0.78403432247180
H           2.16028636166719   -1.12813521170056    2.06779399662684
O          -2.44551872902561    0.82902713987587   -2.14419267682499
H          -3.11418953506440    0.37321451970845   -2.65697307892006
H          -1.96354835131122    0.13846225270846   -1.64280470882636
O          -0.68952922123641    2.41164223736679   -0.31395714663469
H          -0.53481452163240    1.79710409963923    0.41545572713930
H          -1.57175480861233    2.22021323922070   -0.64969153372058
O          -1.21886815003327    0.25002083988724    1.56884862091365
H          -2.15433873705174    0.25149041955303    1.78260398758772
H          -1.12958859942518   -0.23868441114208    0.72624951344735
O           0.12266182371510    1.54438849124672   -2.73377421067271
H          -0.83663980408897    1.44754939569309   -2.87291905757803
H           0.18176044830652    1.95108088740995   -1.84206955108267
N           0.97246915254059   -0.89866467059312    3.22287967967721
H           0.22626103065678   -0.43688978588441    2.70569607648660
H           1.25830260393148   -0.27948783729034    3.97060963533342
H           0.59024199223715   -1.73800445023776    3.63976073588417
