    26
        -50.46936862  Gyration_radius:  2.54192590647 Dipole_moment: 2.074
 S          -1.08499960555805   -1.28157083102420    0.00738053952948
O          -0.26685149403944   -1.87789023386992   -1.03016637887503
O          -1.33249094672514    0.13257295997987   -0.24732368502713
O          -0.50313057237346   -1.46485131364851    1.33965866184682
O          -2.46296509578787   -2.01597423486645   -0.00866366817919
H          -2.90719427308505   -1.64593275121129    0.77639028819979
H           0.95634783485862   -0.61005069116068    1.59776568665589
O          -2.81834616446615   -0.98533119975992    2.42622450523152
H          -3.02540911442544   -1.60549247903722    3.12877439611166
H          -1.86166234076454   -1.09069128241230    2.23487802561852
O          -0.23412111896009    2.15215884337893   -1.64511760294624
H          -0.06064495369435    2.66382187757044   -0.84818185722015
H          -0.73307208232095    1.37462513664657   -1.33012871940136
O           1.94489757089988    1.19877668909416   -2.75803392777422
H           1.15287363684292    1.65413812680440   -2.36745480775733
H           1.68726727925037    0.95211066153366   -3.64778692831121
O           1.68019241869349    0.04136878338933    1.48515245379555
H           2.08541544954651   -0.36275337962520    0.01472885858350
H           1.21858086514478    0.90193836219975    1.49322916460689
O          -0.23937406720471    1.95350078321059    1.31891441493493
H          -0.71906945598665    1.27877177962428    0.78597910561158
H          -0.78027119492096    2.10511267928354    2.09527791252206
N           2.10273715086984   -0.77113306512695   -0.97246800802937
H           2.88293616433705   -1.40971458373596   -1.08286506963757
H           2.13719001459432   -0.00057665401493   -1.69244062090869
H           1.18116406534571   -1.28693395326895   -1.07372274919876
