    26
        -50.45174741  Gyration_radius:  2.50150874193 Dipole_moment: 3.268
 S          -1.02182055773618    1.26286074317412   -0.41835345050941
O          -0.67968872301883    2.03257822332632   -1.57337323630748
O          -0.11789660427260    1.39514970605951    0.70126695319121
O          -1.07129254345504   -0.23471594891522   -0.81465666864905
O          -2.43663543004353    1.56272219575108    0.04752382986067
H          -2.47521752993377    1.18222288367164    1.01814743960504
H          -0.73937118018092   -0.38397514657765   -1.78335331933214
O          -1.44758056630506   -1.76711618415555    1.50449764032053
H          -1.48768379296972   -1.54443481717263    0.56741130785585
H          -0.48589418925763   -1.90958848366335    1.68425474895598
O          -0.18066330995639   -0.45140779856024   -3.15703684584355
H          -0.70620256772073    0.14889492372859   -3.69256188763762
H           0.68549159960058    0.01830299305693   -3.00009913671796
O           1.76509781447967    1.10093941065937   -2.37831978307335
H           2.11492786142124    0.76135457260962   -1.53488228087279
H           1.06060812693584    1.72569154985119   -2.14309275255932
O          -2.16787517667813    0.59681543755439    2.33626813932970
H          -2.00044234030347   -0.37120998826529    2.14316250555948
H          -1.29147160224444    0.98571832519563    2.44082967285356
O           2.27573236255670    0.41613762347175    0.24181214226391
H           2.91880151837664    1.00676576182716    0.63957530305819
H           1.39133610607318    0.78244538444723    0.46657440006304
N           1.25121298637481   -2.05633513705257    1.69464386559386
H           1.64844112690390   -1.30672209378381    1.13424263031658
H           1.51829202549752   -2.93309069286895    1.26443914448465
H           1.67979455586632   -2.02000345339126    2.61107963817900
