    26
        -50.44779310  Gyration_radius:  2.38036980629 Dipole_moment: 4.730
 S           0.58720911868022   -0.17843645956060    1.70516444773447
O           0.30584501215995    0.59383707164334    2.87216134706652
O           1.89046431982571   -0.76740166452137    1.57479901381663
O           0.33492366123539    0.66145183940930    0.45200016850660
O          -0.43658286836160   -1.35032953463272    1.59675815516669
H          -1.27792626519631   -1.02796853960578    1.14665816656871
H          -0.46208385834760    1.34177221787048    0.66651658760257
O           1.20918549925735   -2.23565900507101   -0.58510740398839
H           1.48160298377170   -1.76964760531923    0.22807946269143
H           0.90975198813328   -3.10141157368606   -0.30238496425963
O          -2.44385469046647   -0.53792677555298    0.22128628473363
H          -3.07834944290861   -1.24727196222519    0.09856372006448
H          -1.86828868971444   -0.54427380469701   -0.61416828657570
O           2.77522646796179    0.19017199090129   -0.97741093354133
H           2.61354128937741   -0.69707793113451   -1.31534556614518
H           2.62534405121539    0.12161302328237   -0.02542039310111
O           0.70016821141477    1.39787567287970   -2.30948243074580
H           1.10049971887069    1.44482088572022   -3.17961795156259
H           1.41258224194884    1.11424363740395   -1.70041939524037
O          -0.84536057353382   -0.76692976279890   -1.78073272880450
H          -0.13017933578144   -1.32170094917000   -1.42001526587190
H          -0.41166386499959    0.08932829476769   -1.98260151816275
N          -1.56915586750320    2.06624279856838    1.27309043300607
H          -2.40143046297044    1.52893524988874    1.06537989318504
H          -1.70858911437641    3.03969874635782    1.04412954793563
H          -1.31287952957408    1.95604414939918    2.24811959976870
