    26
        -50.47018428  Gyration_radius:  2.58183091413 Dipole_moment: 4.097
 S          -1.26319561662022    0.89623077780711    0.52829201325881
O          -0.38973932861502    1.30227196289441   -0.57174123057192
O          -0.58381789672199    0.92387329029334    1.80392627934535
O          -1.84934565023160   -0.41871981747617    0.25172763371999
O          -2.42916606680840    1.93309859770104    0.55091663630944
H          -3.07031658730224    1.52533925947187    1.16423302725708
H          -0.72533963767617   -1.71601574978926    0.21192374246171
O           1.45895367679055   -0.65866797116406    1.84891354672377
H           1.72147570244782   -0.82421964384148    2.75582376338558
H           0.67361332142441   -0.05168631929173    1.89834056784530
O           0.10547031751803   -2.21095483848962    0.05281357044020
H           0.42181559112574   -1.46038387276095   -1.30005998925041
H           0.72784046544576   -1.86520564238086    0.71851238625052
O           2.27846421959929    1.26989985152599    0.02538684883228
H           2.24861926447358    0.60139473339229    0.72799939082699
H           1.34542830878661    1.49279756361501   -0.14209343088369
O          -3.86145082561323    0.12295778990216    1.84496968366703
H          -3.15634435195002   -0.33790326898339    1.34674181779660
H          -4.69575248484582   -0.15738285628255    1.46190843657914
O           2.98351862594607    0.15555925018543   -2.23905347874026
H           3.25271816353532    0.85879865383970   -2.83156392465648
H           2.86599844291398    0.58278543499685   -1.34694676195948
N           0.47172654906809   -0.69500140954713   -2.04618350869011
H          -0.04695087803177   -0.95741711038661   -2.87635334405775
H           1.47595165446119   -0.46007928872931   -2.26255372051645
H           0.03982501085881    0.14863061349580   -1.57587996539109
