    26
        -50.45535365  Gyration_radius:  2.4209144914 Dipole_moment: 3.918
 S          -1.19982342435713   -0.77526602924538   -0.38577703777660
O          -0.32656347988885   -0.05927278230477   -1.29125866554918
O          -2.27963748601791   -0.00481148232175    0.14766976195102
O          -0.35219519982450   -1.33395064128875    0.76777219363042
O          -1.71839387313816   -2.02402627544302   -1.09750255665151
H          -0.90132615020163   -2.39454740253620   -1.58325283502360
H          -0.56826543080625   -0.76927442458101    1.64590032292009
O           0.64530085011100    1.99767414673264    1.73070596689712
H           0.02974198569852    2.39470196420531    1.06843906964230
H           1.30036546832094    1.50570626085277    1.21140520497959
O           2.12352324466878   -2.20766246078270   -0.17201018889238
H           1.46784676390647   -2.31351414801731    0.52576907373930
H           2.33158800535955   -1.25780062745592   -0.16964949087446
O           0.48237914470456   -2.58442763182147   -2.22672338753708
H           1.16358851054795   -2.57807732985343   -1.50502793532966
H           0.57313861584567   -1.73801645292211   -2.67478077856457
O           2.00788178184959    0.56940532654297   -0.26344281706787
H           2.48476556891529    1.12291270789636   -0.88459709974357
H           1.12953038016748    0.38234196879389   -0.66643578449401
O          -0.93343846293951    0.16836015133374    2.63910508292919
H          -0.29200917879652    0.92274359508514    2.43837274671057
H          -1.79354225884371    0.44450302969409    2.30264208434146
N          -1.14964814843804    2.65208773551096   -0.18811066188748
H          -1.69663104116080    1.79668301881238   -0.11621165533885
H          -0.73830991994384    2.64819534244787   -1.11342385519450
H          -1.78986626571544    3.43533243069497   -0.13957675786817
