    26
        -50.46414204  Gyration_radius:  2.44089014939 Dipole_moment: 3.680
 S          -0.26162324023662    0.66588650540097    1.52916529199580
O          -0.62479176851004    1.26546411369601    0.24525057150414
O           0.39640460581058   -0.63018565926963    1.30414422772018
O          -1.55733089262516    0.42310654567151    2.33634109746551
O           0.58778395732495    1.53618780287879    2.32429758588568
H           1.96887541834837    1.23872597898356    1.71279431569938
H          -2.20264226757113   -0.10476806127435    1.78384294691322
O           0.05345165209341   -2.13278671594312   -0.77070923712260
H          -0.09286360816921   -3.02741527847026   -0.46131460114839
H           0.17915814929836   -1.57592910376583    0.04261619190678
O          -3.26323243127498   -0.81085049432012    0.81328669932710
H          -4.07476847098416   -0.30030891353106    0.83794027922275
H          -2.88048170090446   -0.68433910562898   -0.09624560602140
O          -1.92633153397318   -0.34158772435297   -1.40139954385486
H          -1.32986860900292   -1.10801403186752   -1.34798686394185
H          -1.46574766598020    0.36790251233385   -0.90218662003219
O           1.61649778489611    1.66670271337969   -1.11777511598996
H           1.50351827318563    0.97240211812096   -1.80623139487277
H           0.73790460468316    1.72238670046352   -0.68193697861852
O           0.91494338977688   -0.36992483836023   -2.71240887064774
H           0.77782647686987   -1.11395936814891   -2.10480804168952
H           0.03571715831535   -0.11027572924331   -3.00387322815227
N           2.63805419662431    0.73220578142243    1.04297404414956
H           2.38938714094800    1.14547079811375    0.06146332294582
H           2.26187949610395   -0.22428106376053    1.07801627142326
H           3.61827989473175    0.79818449787208    1.29474325604413
