    26
        -50.45387636  Gyration_radius:  2.59788112666 Dipole_moment: 8.790
 S           0.72066069409708    0.78887191915062    0.14788191390334
O           0.71551455959356    1.20610972968258   -1.22862077217831
O           0.74331477037633   -0.66865233440930    0.29348887651120
O          -0.60298659377384    1.27105162565735    0.84434171714364
O           1.77761161669163    1.42173635969406    0.94493749789387
H           1.31343583033840    1.34142547797888    2.25964064766076
H          -1.29189699269882    0.58565050076154    0.55481228114199
O           0.94119042021440   -1.46809872287579    2.75243482958263
H           0.83068780852980   -1.25183603778327    1.78761930162631
H           1.75339522572634   -1.97404229026156    2.81403377040360
O          -2.75086893560650   -0.56005708339336   -2.42940742296904
H          -1.93811959779479   -0.25486809745405   -2.90649452780584
H          -3.44431854971963    0.05655226385521   -2.66727174737325
O           1.63912167593453   -1.09823540559193   -2.42398772993934
H           1.53113601035631   -0.21152448400955   -2.04758540449943
H           1.47649852062827   -1.69004197744766   -1.68578773702898
O          -1.98593875280807   -0.70489453721545    0.09832562387948
H          -1.15472565731278   -1.19489178630778    0.04499905083700
H          -2.34347021193919   -0.67312565463378   -0.82481568083994
O          -0.53255466826457    0.37289124376175   -3.52556546159807
H          -0.18001880923534    0.91506744641145   -2.80131210433031
H           0.12087234247563   -0.33397610765196   -3.62213167480498
N           0.79009709565530    1.10891712311062    3.22783566078553
H           0.83645825793780    0.05184843566123    3.27392640701837
H          -0.17506880803817    1.40191312259761    3.08623295770548
H           1.20997275861066    1.56220926067058    4.03246972730723
