    26
        -50.47202829  Gyration_radius:  2.47697493768 Dipole_moment: 4.477
 S          -0.80114987812694   -0.73921194545015    1.07808597998674
O           0.02373889992672    0.43889875875305    1.39720021594616
O          -0.01837325531351   -1.77314899022170    0.44311274837084
O          -1.96166455186856   -0.33185042389184    0.29152256260296
O          -1.31220601666456   -1.31357787883263    2.43393526003878
H          -1.98504891799783   -0.66404438671380    2.72143899861336
H          -1.73888814862900    0.19259809195211   -1.34960324811480
O           2.37249809388030   -0.77800697460543    1.12472955859914
H           1.68146990926668   -0.18204315724667    1.46883117579865
H           1.85975698709269   -1.57133035204508    0.90869224376747
O           2.76356462061331    0.30229623997533   -1.22474003724551
H           3.69665445517437    0.37729478573812   -1.42702234880524
H           2.70240919195501   -0.13209550348137   -0.32614117988648
O          -1.27314789789109    0.52508189798862   -2.14369887364378
H          -0.24197894234346    1.39038895085645   -1.45221552104116
H          -0.69013877731560   -0.22445920073840   -2.40952987488578
O          -3.23245878048844    0.50423160181801    2.41797197014092
H          -4.13135036605831    0.16848166043150    2.44607340023250
H          -2.91811178785511    0.38059154592979    1.49831100394023
O           0.60457659396344   -1.34508736679355   -2.15479630566306
H           1.45108297020709   -0.89437494792451   -2.03414025816676
H           0.35199152261561   -1.67174736718366   -1.27130643996437
N           0.52407266974680    1.78224014980482   -0.78359699616814
H           0.30489859154158    1.35023112709135    0.16285079071340
H           0.51948198549596    2.79478489543468   -0.73813515700449
H           1.44832081909202    1.41385880936068   -1.07782968815497
