    26
        -50.44572199  Gyration_radius:  2.62239186996 Dipole_moment: 2.876
 S           1.00791023197391    0.09769797064750    0.22801865624222
O           1.74764753151024    0.60913808279102    1.33841706623079
O           1.54651514319143    0.39859860722256   -1.07215817718069
O          -0.45275040103465    0.63131045741482    0.28057214287681
O           0.82446608433908   -1.41188837851340    0.33267218765277
H           0.24599649756478   -1.66719907538364    1.14706591796324
H          -0.39493921931283    1.55861537853721   -0.15952081799641
O          -2.06656692689676   -3.31651517158816    0.29618127421569
H          -2.31111882214964   -2.50209446484730   -0.21351270171001
H          -1.45552893798941   -3.79168908529045   -0.27108168131409
O          -2.28755471176636   -1.06225430522347   -1.06271271720317
H          -1.95409818827942   -0.39836915689639   -0.44727584199182
H          -1.58695876424902   -1.15277055733889   -1.73620684691594
O          -0.06278473050969   -1.07405748283909   -2.64723361377481
H           0.60177837442730   -0.62540407391752   -2.09305038827201
H          -0.02663537544633   -0.65484429782402   -3.50908110841412
O          -0.67885904459841   -2.19278873619846    2.18851434578288
H          -0.25951641665633   -2.88335714095131    2.70673020999977
H          -1.32053847840892   -2.64680909465541    1.56664018030973
O           0.12696003334552    2.78788037912606   -0.87012279701929
H           0.77480512772495    2.33132206568314   -1.42039024141001
H           0.65703239248095    3.21990317056607   -0.13794109484894
N           1.66868435311327    3.46675631681490    1.16859509425368
H           1.25627676608986    3.89828074029744    1.98619414120507
H           2.57133262373465    3.89870549926362    1.01514213724244
H           1.82844482786696    2.48183235308983    1.38554466406115
