    26
        -50.46049124  Gyration_radius:  2.43278885376 Dipole_moment: 4.007
 S           0.33602717050003   -0.21740685787160    0.91148598530341
O          -0.84903636514839   -0.32134454233188    1.72294704191044
O           0.82244575514591    1.15037742003596    0.76746655424188
O          -0.00575937678091   -0.69916854556772   -0.54335630284259
O           1.41382639354993   -1.12213995385244    1.32302907826120
H           2.11158309428693   -1.48884457686644    0.09283115328856
H          -0.80198400600974   -0.17900442827226   -0.90544745343935
O          -0.36231008322736   -3.17147100626439    1.01989638056463
H           0.32157248229737   -2.53953291646145    1.27718006850378
H          -1.18270542912833   -2.77556916020145    1.32030965049226
O          -0.96699470837584    2.88916084486939   -0.20614463908030
H          -0.23231477265601    2.40317643253849    0.21614909805229
H          -1.69645314278626    2.83711807524238    0.42447115937928
O          -1.93181445840064    0.73933241406165   -1.38197764729508
H          -1.56615528553395    1.63662393195536   -1.17430995333282
H          -2.64093855139457    0.63751024041526   -0.73258806639401
O          -2.87472346044449    1.28167228640723    1.18559763023182
H          -3.50290068097979    1.23530938682805    1.90730288013196
H          -2.12572083856397    0.69960791029645    1.44385755902157
O           2.24212991078485    0.96737615965237   -1.41266666505902
H           1.63353790530245    1.30199034195883   -2.07582812561014
H           1.80115824862168    1.14136496394781   -0.54270014516034
N           2.46426307575955   -1.60700979293072   -0.93656707452963
H           3.38079084969751   -2.04100649690261   -0.98570169193643
H           2.45736433295451   -0.60224893993200   -1.29661145267596
H           1.75511195015146   -2.15587319096048   -1.41862504199434
