    26
        -50.46654161  Gyration_radius:  2.46911177188 Dipole_moment: 5.981
 S          -1.12339478753680    0.06907533624972    0.18104126001455
O          -0.64346244534707    0.14401080219026    1.56876094829110
O          -0.59503263862114   -1.13452910355101   -0.46493992308767
O          -0.79374545921847    1.26744858381170   -0.56248411222618
O          -2.65633495597107   -0.07113461881445    0.29655662812024
H          -3.02065183635344   -0.09566032530049   -0.63168454068787
H           0.90212039856902    1.34345924220788   -0.66549033534569
O           2.03987985138274   -1.36542811149502   -0.39650734090582
H           1.92531004665276   -1.28433502410041    1.06098263676191
H           1.08498136474251   -1.48937395796729   -0.58764994643442
O          -0.93935150596949   -0.17062892863440   -2.90929234325921
H          -0.71328715375359   -0.67261738258303   -2.10059149343090
H          -0.70414309293791    0.73840138459317   -2.69381718000063
O          -3.45579308792472   -0.28244858655275   -2.15894015466726
H          -3.76025480873371   -1.17823896739681   -2.31898474978475
H          -2.57742451928653   -0.20158016684923   -2.61341711419963
O           1.36540875840458    1.79262874494337    2.17768368952409
H           0.51906555924420    1.34087368235703    1.97208626718293
H           1.14282764061091    2.70913535553973    2.34630234761826
O           1.86521392137311    1.25672438992471   -0.51326403140504
H           1.99266319480221    1.58312654331755    0.39021099564142
H           2.18973462951397   -0.41186571252092   -0.61682367047830
N           1.59669677251790   -1.05576057929736    2.09635697618405
H           2.12049108217231   -0.26202193958344    2.46552165408128
H           1.64374515277305   -1.85603077033427    2.71682127584290
H           0.59473792887069   -0.71322989013395    1.96156225666274
