    26
        -50.45213662  Gyration_radius:  2.44480372509 Dipole_moment: 2.910
 S          -0.89564981952970    0.27763573998926    0.85639971438710
O          -0.16480660014487    1.51429924199454    0.72124066299061
O          -1.20946348707056   -0.09687496654415    2.19655192683293
O          -0.12955785711171   -0.84961420866367    0.14192133073706
O          -2.15560350273523    0.41242774606969   -0.01208570007545
H          -2.52211327710686   -0.51345393692136   -0.29187329906203
H           0.90963206494900   -0.81011088796739    0.33759456482280
O          -0.45050187114250    0.78157279110871   -2.29109693249354
H           0.44967041660558    1.03591704475682   -2.03770297784214
H          -1.01267746032613    0.97444103212646   -1.53257882312554
O           1.86505223022489    1.67525220931458   -0.90735468679335
H           2.18147288796256    2.57169181223386   -1.02920649554077
H           1.11993929884385    1.72302629469453   -0.26371264144608
O          -2.94926180775115   -1.78512250477504   -0.93227121972576
H          -2.15934849134066   -1.94707118064852   -1.52835197467573
H          -3.69581008493117   -1.61655641043566   -1.51226289282506
O           2.29160832097554   -0.56886655843266    0.62092930421022
H           2.17650941065544   -0.19635482577999    1.54387226343400
H           2.46851986752888    0.18342555357260    0.03086335521258
O          -0.80015242222840   -1.90041839975705   -2.40704985254289
H          -0.14971555504509   -2.15172730745338   -1.74517788753774
H          -0.66498400841799   -0.93724460191997   -2.54272267251720
N           1.52727830139160    0.44736451336107    2.93984337849140
H           1.56408644628345    1.45951564560592    2.94245330833094
H           1.86292484984848    0.12229002635647    3.83866976026118
H           0.54295215961132    0.19455614813842    2.86310846648935
