    26
        -50.45855805  Gyration_radius:  2.39945732665 Dipole_moment: 4.683
 S          -1.02641974514275    0.93692075251874    0.70063914592563
O          -1.48525062959563    1.10618469479067    2.03804721836836
O          -0.88628693152977   -0.46104473849754    0.30011256871282
O           0.33649113856091    1.61670030671797    0.47712516670479
O          -1.93638262108206    1.64262394135200   -0.27767458640690
H          -1.60108722451334    1.47023972675968   -1.27727529064630
H           1.10256109004260    1.07732278326467    0.95461596567091
O           1.49243298292978    1.14974239642392   -2.06420193500094
H           1.63806250946575    0.26288854953415   -1.68434665165153
H           1.48816801946213    1.75543855610849   -1.31594595759530
O          -1.64826546374970   -1.48659643796148   -2.04392678692234
H          -2.57481526443346   -1.72928022147411   -2.07237367385833
H          -1.45704510991774   -1.21870994829288   -1.12309264258484
O          -1.10529240095594    1.10422646352409   -2.55509896217696
H          -1.29494501395048    0.14433761708583   -2.61568076547230
H          -0.11757472272192    1.18684813493531   -2.51665633767152
O           2.08086563946776    0.17330541531102    1.52443637053501
H           1.51272378330878   -0.27941301093361    2.21819068867143
H           2.22515188447707   -0.47417599637976    0.81995862972938
O           1.39986317492986   -1.26688070109053   -0.75779176505107
H           1.20855486404599   -1.97857014574470   -1.37221630022301
H           0.54182171019274   -1.03083553688624   -0.34179172709347
N           0.26703092053257   -0.86597941555262    3.12488452595836
H          -0.44927721468325   -0.17355148805620    2.90733165513024
H           0.37590431805367   -0.89709446895700    4.13106184188406
H          -0.08698968319611   -1.76464721849617    2.82166960506600
