    26
        -50.47225092  Gyration_radius:  2.39569154245 Dipole_moment: 5.716
 S           1.51467178283606    0.18307530308466    0.71021636489519
O           2.32170807050274   -0.90884436302329    0.19974427296915
O           0.26550610961031   -0.34256961053948    1.29388400841285
O           1.21970125964556    1.17819640992448   -0.30981110847683
O           2.28619803168146    0.87463658428478    1.86372923563022
H           1.78137657046739    1.71671838532422    1.98495106472470
H           0.40084429727424    0.89180852099233   -1.78150579224237
O          -1.03118769343694   -2.27702264869017    0.16078469803515
H          -1.20234136586055   -2.96206441432189    0.80861732262789
H          -0.52610105762398   -1.56600242532253    0.63847211314524
O          -2.30446108535292    0.07301664100982   -0.92617790694640
H          -2.10367106181243   -0.80415660587861   -0.57467620805258
H          -2.19400755152020    0.69193041529636   -0.18616309141677
O           0.67524644239770    2.92032353031697    1.61449943522009
H          -0.25196233839621    2.65876843927624    1.73738212008483
H           0.85961057957810    2.70361917014500    0.68621938114795
O          -1.65379722355853    1.39139178669878    1.48629043070223
H          -0.91907004028319    0.72900601387082    1.44105186107317
H          -2.18143133560842    1.16151382389905    2.25300988796395
O          -0.13324465667029    0.41425445227865   -2.45099405001423
H          -1.03760828855034    0.37897067174371   -2.06053622405057
H           0.44263596304015   -0.94047904500932   -2.18854089243215
N           0.85268024258326   -1.85381903469584   -1.74157373708701
H           1.25871090826567   -2.47909006461225   -2.42855875009307
H           0.08990799070196   -2.30178548386351   -1.20379975419404
H           1.57008548011244   -1.53139643223414   -1.02651468164600
