    26
        -50.47225098  Gyration_radius:  2.39571708205 Dipole_moment: 5.720
 S          -1.57098194850548    0.16486585709599   -0.58139487934623
O          -1.44108629021523    0.74766619538631   -1.90326162473108
O          -0.84606589101590    0.98730327032133    0.40621424774484
O          -1.10516461197546   -1.21309791391625   -0.53468919411072
O          -3.06568547937331    0.19309125531772   -0.17004184570520
H          -3.08497390226501   -0.41384096736687    0.61090144781005
H           0.47030568627669   -1.74876083489590   -0.92000284140146
O           2.16974064728744   -0.45731572099496    1.12158779247557
H           1.42065052806624   -0.56594775412999    1.72983962868330
H           2.13125375549394    0.45585388492549    0.80854211293007
O          -0.22724681091694   -0.24694503459196    2.60192548453572
H          -0.48218101418660    0.23989851825048    1.77819645308489
H          -0.23402680118860    0.39679707986943    3.31226742569485
O           1.45758736286034    2.03181615851853   -0.15032062381727
H           1.43443334100457    2.96842536314795    0.05033710923320
H           0.55367960913688    1.68048499900995    0.06953318406623
O           1.42682190072103   -1.69644021456331   -1.12960163961904
H           1.34881765807105   -0.45572386440640   -1.95984767671478
H           1.84489708919061   -1.40457679128215   -0.28601418519049
O          -2.50994802879762   -1.56324987257911    1.68706318069329
H          -1.83168739492583   -1.23148771947226    2.29783228513025
H          -2.00120881314146   -1.90707536619108    0.93486044835814
N           1.11722360754836    0.52984918086534   -2.38107955900004
H           0.05920014114027    0.62278696890063   -2.33977182791277
H           1.47004721643926    0.64662565867236   -3.32430236634706
H           1.49559844325204    1.23899766411311   -1.72877253653456
