    26
        -50.45356127  Gyration_radius:  2.46002885748 Dipole_moment: 2.279
 S          -0.24406719913712   -1.86766070178009    0.43051969858438
O          -0.89087258901120   -2.88403415769903   -0.32502510397869
O          -0.91023212945464   -0.58835257365688    0.46651960992681
O           1.18344303882152   -1.66580100472806   -0.13252691169166
O          -0.02985022927231   -2.34923971546984    1.87179173560982
H           0.17458662004702   -1.53754205472149    2.44507901242754
H           1.47584343116882   -0.70109461137236   -0.12413288040703
O           0.38348497692806   -0.24889903252367    3.25625533926865
H           0.46554921078105    0.57985136052103    2.70760144234337
H          -0.36921010188644   -0.11166879366632    3.83459457790209
O           1.95933850584527    0.77322911563703   -0.31440695297024
H           1.30295816036113    1.07176597235066   -1.03572462439137
H           2.83031306159341    0.78430040070449   -0.71498558491150
O          -1.60123660418275    1.90078424755013   -0.01353712560346
H          -2.54990906141010    2.01272729557567    0.05810670292220
H          -1.42034841968197    0.95078854879426    0.14237342285671
O           0.20666112764940    1.39885243753555   -2.06354137899005
H          -0.13029725086656    0.50675652596522   -2.33452670796547
H          -0.48565228324417    1.78209875372439   -1.50247572797386
O           0.57005422767645    1.92338957219179    1.78317083988552
H           1.22476926264500    1.63900854952608    1.12787072045311
H          -0.23487228589029    2.09748155891220    1.27188570713808
N          -0.65419435947488   -1.09825184314323   -2.65650832680138
H           0.06011670555798   -1.59352719572942   -3.17740434559496
H          -1.50792052305710   -1.14979790024776   -3.20015548074494
H          -0.80845527249273   -1.62516474425983   -1.80081764729503
