    26
        -50.46007408  Gyration_radius:  2.50193450534 Dipole_moment: 5.720
 S          -1.24075661832168    0.89829708636719    0.98376922216523
O          -1.77975431257764    0.67050234845650    2.29984773566190
O          -0.74921751780360   -0.35830778332203    0.38514407944434
O          -0.14950858275447    1.88566654951689    0.98176442442853
O          -2.35596859676372    1.44640864299282    0.06558322771524
H          -1.91660557090982    1.54016575171995   -0.82548521700147
H           1.00970164231619    1.28247940225256    1.62139545381291
O           1.57904198654123   -0.01905751282872   -0.68387799787558
H           0.67048705372918   -0.17867627975972   -0.30550436773941
H           1.48510296343835    0.80509656716487   -1.16881582887136
O          -1.18265024018066    1.43581264855753   -2.25327036324426
H          -1.76625052103840    1.80522839783919   -2.91868212763086
H          -1.25708022927460    0.44196653396418   -2.34064048160270
O          -1.39243637513699   -1.16030799451639   -2.12592563930431
H          -1.31428208016630   -1.07104933580571   -1.15934541240010
H          -0.55492632300397   -1.56353612142625   -2.42249245230606
O           0.02827608754389   -1.07816936845043    3.01642588453973
H          -0.72012825720703   -0.43634321512901    2.93929762511838
H          -0.17275845796422   -1.74039956050605    2.34890322133859
O           1.18676957577657   -2.03407607516196   -2.49746553366830
H           1.48776437760606   -1.33213965287704   -1.88875332842500
H           1.43575280110515   -2.87010286441474   -2.10159465686857
N           1.78446740520711    0.57995866405854    1.95861003564818
H           2.15923174575743    0.19828207842137    1.07620181759732
H           1.22990802541433   -0.16264355268126    2.47986788505754
H           2.49582003864142    1.01494463560298    2.53504278441988
