    26
        -50.45364265  Gyration_radius:  2.46013731089 Dipole_moment: 5.002
 S          -0.66060637770238    0.68034525112417    1.89575757622597
O          -0.38067447526642    0.26619621745144    3.22296314288221
O          -1.02559241885670   -0.36126078904369    0.96513202951880
O           0.57313720964257    1.42213692857716    1.31982023241735
O          -1.76529740996787    1.75748253868201    1.91025614245209
H          -1.88053920196678    2.05435312359092    0.96629460747675
H           0.74854500969950    1.23708389232278    0.32893449244116
O           1.86628065392205   -1.62144263978443   -0.85668297002626
H           1.79044716254476   -1.64282481492393    0.14121545663086
H           2.73265516163316   -1.96434177556903   -1.07905078720956
O          -1.31282658070376    0.46605582882644   -2.39588136201460
H          -1.78809037585940    0.39841610456814   -3.22454369877659
H          -1.25559388010621   -0.45917806123862   -2.01935994731262
O          -0.90876737719833   -1.84676515339131   -1.26985132843644
H          -1.10312558397464   -1.49218883664397   -0.38602525016857
H           0.05293138371263   -1.96659055917117   -1.27965444590679
O          -1.70719882178202    2.44426858629298   -0.58692646309980
H          -0.85996497796848    2.88322689533264   -0.69982664062655
H          -1.71170759978376    1.69003627619724   -1.21137954236666
O           1.07350672414960    0.94668859991862   -1.13156717620336
H           0.27167942552069    0.85864342253049   -1.67543857816768
H           1.45462873987043    0.04442045304161   -1.09452392099846
N           1.54924484071801   -1.51054556826713    1.77830722599872
H           1.98567361530118   -0.68838547973654    2.17962436885951
H           1.70924887270522   -2.27827588341179    2.42009122318825
H           0.55200628168205   -1.31755455726868    1.78231563321080
