    26
        -50.45052659  Gyration_radius:  2.48752199226 Dipole_moment: 2.481
 S           0.16068446133420    0.02883290104240    0.48519051354234
O           0.67527281458464    1.35565747914375    0.31801258441361
O           0.63004383479543   -0.93210892657827   -0.49252416540284
O          -1.36398663770373    0.04750281493814    0.43647759097737
O           0.47039135957160   -0.46344994312689    1.89426978216121
H           0.06586663870440   -1.39307108620479    2.04510334615845
H          -1.73727758387641    0.65021028489038   -0.39271363220975
O           0.26880417562412    0.74313931818544   -2.57521849284494
H           0.52171694953013    0.02434886700824   -1.97225086792675
H           0.90571532748256    1.44744299171905   -2.43167998348554
O          -2.03907121715215    1.44394384565899   -1.48076587526585
H          -1.31439740014636    1.19998905467941   -2.10612517541843
H          -1.79674743331452    2.34179259333561   -1.15414181362101
O          -1.32673793013383   -2.75067601473383   -0.38138437968271
H          -2.11016242909088   -2.20056071850426   -0.46147362012403
H          -0.57101520752786   -2.18080381659285   -0.61852529203731
O          -0.48829263994064   -2.80002574407494    2.10423714321741
H           0.22137448500956   -3.44519137333306    2.15591878809625
H          -0.91041783787234   -2.91466375994042    1.21187720965776
O          -0.82666835928841    3.49370136892848   -0.31831942705138
H          -0.15559245536913    2.83765530501903   -0.05144952743652
H          -1.09666207705050    3.94959924183566    0.48043635890197
N           3.23524972418722   -0.11894578705501    0.76840919725176
H           3.04768122149911   -0.41691832970531    1.71821315870152
H           2.72409565707232   -0.74178059647534    0.15478093319040
H           2.81013257905312    0.79438004993528    0.66364565614307
