    26
        -50.46798763  Gyration_radius:  2.53181837848 Dipole_moment: 3.777
 S          -1.42015105680835   -0.43702988783542   -1.75762795829447
O          -2.62460257038673    0.01729764632611   -1.08802057302946
O          -0.62096719549460   -1.32573231878305   -0.92669744125756
O          -0.64286045255205    0.65370000094746   -2.31115356750683
O          -1.88443319550884   -1.31924732811829   -2.99009585955512
H          -2.26665203120531   -0.65103678177084   -3.54805630053759
H          -0.12175722540994    1.66108403407052   -1.12550714043861
O          -0.74883051660411   -1.13796737173171    1.75331306947152
H          -1.27123553670046   -0.32107181460326    1.77513424825698
H          -0.71461760629177   -1.37027681798770    0.80584566515372
O           1.61532389985885   -0.49545165912040    2.66306345109414
H           0.73330069860606   -0.84649622875134    2.35501768550163
H           1.43792036772559   -0.02479889775266    3.47834098798924
O           0.15610608705751    2.08643805222297   -0.27947004193424
H          -0.57970448526093    1.91599148458235    0.33623518546425
H           1.40625298998696    1.27053314035516    0.08843313098599
O           1.93975943259934   -1.46496959327786   -1.29787623728319
H           2.14577458899789   -2.32706866031790   -0.93044766377169
H           0.95103484549204   -1.40892891120498   -1.29513224075552
O          -2.03345005297796    1.22211740821913    1.11015770779343
H          -2.31453956520580    0.75215102059392    0.27755220281447
H          -2.79358715416947    1.73526015438935    1.38892677750719
N           2.23499039417308    0.62627492220713    0.32633933685989
H           3.11106489088577    1.13052175285095    0.25126538543192
H           2.21168373240507   -0.18153039483680   -0.35326403596859
H           2.09417671676402    0.24023704936079    1.29372421602731
