    26
        -50.47241007  Gyration_radius:  2.38525900635 Dipole_moment: 3.011
 S          -1.26730016228013    0.13756778157204    0.90486868197198
O          -2.07796520940253    1.17254653162291    0.33742567753912
O          -0.07030541078419    0.65775735897048    1.56971795483442
O          -0.86799576946995   -0.87224729207574   -0.09792104120136
O          -2.10286426031869   -0.61912507122384    1.98571797128544
H          -1.53069714876169   -1.35949295917739    2.24464898647510
H          -1.11906415152004   -0.42162041781852   -1.81573525704829
O          -1.01033404657513    2.43170710575417   -1.76654298670259
H           0.33420939982170    2.23573163258620   -1.03994440208285
H          -1.60190026334054    2.18416678675178   -1.02880429604567
O           1.68299866315832   -0.62331653567348   -0.96662374800833
H           0.74629011255396   -0.82765796721266   -0.78199735902257
H           2.12666989313438   -0.85947037172847   -0.12467158288060
O           2.05660516158467   -1.00720603440090    1.66094026423197
H           1.65487693639856   -1.83746281781162    1.93689843492342
H           1.35488352757238   -0.34153054860207    1.79016602456762
O          -0.93830037604576   -0.08960345288182   -2.71255681898624
H          -1.06523086416156    1.66402101483210   -2.37075439255180
H          -0.09532902924138   -0.46866893061760   -2.97305489835941
O          -0.32138844842852   -2.63221460135963    1.74097215638156
H          -0.43853757092529   -2.11485059908302    0.91365663867913
H          -0.69046145749689   -3.50256046786420    1.57853797693934
N           1.14243873249937    1.89474748573596   -0.40981647675713
H           1.85474678002142    2.60367740955622   -0.27449613146689
H           1.54033429490231    0.99230349271265   -0.80062510600234
H           0.70362068710731    1.60280147744755    0.49999374927566
