    26
        -50.45522897  Gyration_radius:  2.56881109489 Dipole_moment: 3.504
 S          -0.43356885543959   -0.81743215253418    0.17718120239953
O           0.72495978017876   -1.26531889960689   -0.57528485158893
O          -1.53359086333356   -0.43520504265609   -0.68970338877571
O          -0.05529130103903    0.30814838023043    1.06737885416470
O          -0.92754008710672   -1.95886554169589    1.08500648848184
H          -0.28332302671391   -1.94790844015312    1.86154064433056
H          -0.56112924701837    1.55304018763484    0.76364903191895
O           0.86821948604540   -1.55453527848942    2.84564884791829
H           1.66850328054646   -1.89202973830189    2.36521084833779
H           0.79031380576905   -0.62305545764504    2.60069952311577
O           0.25340779476065    0.17886500497224   -2.72013987460870
H          -0.65222079907031   -0.11672188708898   -2.84962441845557
H           0.57371984408438   -0.37836441908975   -1.97689501316452
O           0.08672141627202    2.64726656931259   -1.88645499543710
H           0.98076965003023    2.99318888378654   -1.90023858187600
H           0.14445786529153    1.71574741930445   -2.24567183223153
O          -3.23794864096371    1.43365867995023   -0.16945581447414
H          -3.65101672857971    1.66268249404998   -1.00455558246878
H          -2.72400222823532    0.59993442227359   -0.33079685030690
O          -0.99508591851506    2.47789525055064    0.40852921617976
H          -0.56128482277331    2.62141340336027   -0.51369831863187
H          -1.97034886607700    2.21508269802813    0.23183873212591
N           2.76855512970387   -2.30639476138691    1.11446915198159
H           3.65933534074681   -1.83904096092644    1.00184862226981
H           2.14752013767373   -1.97592825065955    0.37368276495980
H           2.91986784374340   -3.29612258318920    0.96583559397815
