    26
        -50.45901929  Gyration_radius:  2.46762752552 Dipole_moment: 3.250
 S           1.27335249827427   -0.01140447117320    0.51402922412675
O           1.71738566678461    1.02379834691097   -0.40567944681901
O           0.92032356510580   -1.24543640322697   -0.17522866101012
O           0.13657529826059    0.46749816816595    1.31685233126128
O           2.42074649521881   -0.35105035565064    1.49596581325658
H           2.60360397023173    0.53849154735442    1.90904529424146
H          -1.02308756711622    0.84774390902116    0.55000637341486
O          -2.69602563879827   -1.32449218882278   -0.68342863663467
H          -3.59971438254536   -1.49673115404659   -0.41424898470372
H          -2.11314965789491   -1.88594387261493   -0.10007915307821
O          -1.77395610055476    1.06000433207365   -0.15390898878221
H          -1.17140004823916    1.33928115136467   -1.05395225601228
H          -2.20109419663737    0.17357759351698   -0.36707342351989
O          -0.25477843854518    1.45888274832767   -2.05400018370369
H          -0.30949843693994    0.56589580623150   -2.48436646928751
H           0.59155215576470    1.42875044274373   -1.53837505521659
O          -1.02369207534059   -2.70254107458747    0.77318532957388
H          -0.23759769558403   -2.14656569495926    0.55347975916672
H          -0.78580153643498   -3.59664514916790    0.51963458849180
O          -0.44986530176744   -1.11969328678725   -2.49731500373655
H           0.16567199801438   -1.28672994821948   -1.75743280818006
H          -1.32529761937445   -1.36192987651859   -2.17317380844804
N           2.39474001316071    2.17174839740638    2.10930543985807
H           2.96355969794330    2.90465416554293    2.51392127118170
H           1.46025545673497    2.22818398169394    2.49504162701417
H           2.31719188030599    2.32065285542083    1.10779585762606
