    26
        -50.45467083  Gyration_radius:  2.45125583721 Dipole_moment: 2.772
 S          -0.07108629596240   -1.44697417788996   -0.14436342017588
O           0.42810993488774   -0.64159607833574    0.95545707978674
O           0.94418207331393   -2.14075989978210   -0.87181940955468
O          -0.86231068500768   -0.51758633386210   -1.10162471602180
O          -1.13506710361482   -2.39060664163156    0.35823000680973
H          -1.66066706291414   -1.84051076777881    1.10134626156483
H          -0.25318786084402    0.20289898027387   -1.46486910430384
O          -2.16694953154530   -0.92058697543874    2.06157331972399
H          -1.34833867509053   -0.57889915933564    2.43636133652027
H          -2.55194081627500   -0.15239687376833    1.50537382349276
O           0.78757288269707    1.22811137348569   -1.99651197892270
H           0.67883778156162    1.39514996489952   -2.93498004578029
H           1.64629716266021    0.70012913197909   -1.90493275765390
O          -0.19303858678647    2.01351616907099    0.59028058884561
H           0.23451299848974    2.16817863832234   -0.25853910101570
H           0.11394033131350    1.13867877488426    0.87317401948971
O           3.11323337119544   -0.23061240480761    0.97885276746994
H           2.15048980429750   -0.34266790460198    1.07595891412525
H           3.51720335135368   -0.99890723323331    1.38555789791459
O           2.79165992924286   -0.34728911206272   -1.69468972063270
H           2.27205203199676   -1.16262304196998   -1.58224374069869
H           3.14913113018876   -0.16730449758689   -0.80174541096162
N          -2.89120656009153    1.05986707541387    0.53886532918222
H          -2.03347712912858    1.61627990643710    0.56599986377451
H          -3.67781632704282    1.66664077999659    0.72807945365800
H          -2.98213614889090    0.68987029732463   -0.39879128665783
