    26
        -50.45465790  Gyration_radius:  2.47391352941 Dipole_moment: 1.437
 S          -1.15353785917093   -0.61024464036963    0.09791493878777
O          -1.32430864157229    0.79321044663431    0.41133764104306
O          -1.05683781513285   -1.46378312281542    1.24787695791897
O           0.10585288585543   -0.76675838881536   -0.76694958529526
O          -2.26969589263414   -1.07572526207044   -0.82066706176112
H          -2.45445355933446   -0.27856784204614   -1.45170813390647
H           0.94420073636344   -0.51382069315308   -0.21075964843673
O          -2.51794354610724    1.08370962522345   -2.07553077412216
H          -2.41467886647755    1.58025273438876   -1.25451980225912
H          -1.67838019561651    1.23390263585872   -2.58163716178124
O          -0.14425421563430    1.68663281664880   -3.07888625751752
H          -0.05311961122891    2.48739307959490   -3.59829339956986
H           0.31603377786642    1.85364003921854   -2.22623092546387
O           0.79492125035240    2.15258037243882   -0.60419942244316
H           1.55482657207908    1.64022035406531   -0.31021610802602
H           0.01827445455035    1.76780069285528   -0.16057705977109
O           0.23783118367857    0.44696857896111    2.69721555415862
H          -0.30153531698831    1.19765474148959    2.43236447312927
H          -0.28731158573480   -0.33470275931887    2.46124726599422
O           1.99725963668121   -0.17975868635191    0.78636171392120
H           2.16730880281969   -1.12043237890309    1.04951946180806
H           1.51190231487142    0.18671632973181    1.56179600399084
N           1.64636709199377   -2.71705660484680    1.53089483392722
H           1.87645919851862   -3.02846759826216    2.46649671852756
H           1.84101776861899   -3.47967722643942    0.89440354263567
H           0.64380142139158   -2.54168723372503    1.50274625451246
