    26
        -50.45593664  Gyration_radius:  2.45829991785 Dipole_moment: 5.338
 S          -0.80446697705506    1.33346957666584    0.84577070065206
O           0.06722886419683    2.37976670406609    1.27867155635937
O          -0.35156275080787    0.01362808656021    1.25087304600569
O          -0.98668419525089    1.34155643967478   -0.67629784628126
O          -2.22291795566886    1.56594837389278    1.34676529336312
H          -2.82826069831411    0.98649434021054    0.75082397113438
H          -0.08491787912829    1.10480652216810   -1.18746710593498
O           2.50633201492479    1.72226293684077    0.29127368729217
H           2.66718162368843    0.92157192496974    0.81075437414989
H           1.75033190801513    2.16481747213975    0.71583868610302
O           2.11680874986795   -0.79084789359033    1.49615318263255
H           2.24664090903645   -1.19566612351832    2.35513937862458
H           1.18291525605668   -0.47116204893708    1.48054123634836
O           1.69029753984604   -1.80443627235582   -1.00771584643543
H           2.51657939078495   -2.10629838076243   -1.38953759409539
H           1.88445684666172   -1.56246097339809   -0.08138362688482
O           1.16859662562129    0.74050172341819   -1.74287319191915
H           1.79776822486120    1.19109373767358   -1.11964529972849
H           1.28688649036266   -0.22241693226517   -1.58701103595081
O          -3.51362925559976    0.15511330859732   -0.30889277192211
H          -3.39488107939106    0.69194298725012   -1.09704292259226
H          -2.90618881989048   -0.63740563357437   -0.42847717338637
N          -1.68276077007122   -1.74147275912293   -0.53975716924589
H          -1.09999063907297   -1.29811354458874    0.16891200182577
H          -1.13108567433759   -1.79442827041913   -1.38715235376594
H          -1.87467776854602   -2.68826529223065   -0.23826315741296
