    26
        -50.47009042  Gyration_radius:  2.50644482244 Dipole_moment: 6.372
 S          -0.97123304186398    0.48642321537628    0.15945296461347
O          -0.03383761815518    1.54686052834943    0.49741812588272
O          -0.67536807647858   -0.72280356720463    0.96000403270747
O          -0.96412247576839    0.16432507610521   -1.25447215322339
O          -2.36770982347289    0.98836362308357    0.57988150654649
H          -3.03616270184042    0.29294786028835    0.32558955513460
H           0.59589549085095   -0.04419566600963   -1.87529659494902
O          -1.87829828426540   -2.35264840661207   -0.75041850951035
H          -1.63979415990617   -1.80846569379610   -1.51111407153799
H          -1.39538394094737   -1.93279424359631   -0.01145082483079
O          -3.98523194654107   -0.96712636045377    0.02907628696968
H          -3.33365367053099   -1.61256970698635   -0.34467072568414
H          -4.31351160167590   -1.35134010970868    0.84469666566902
O           1.95887939364480    2.40794375887613   -1.11055907228171
H           1.11622451368850    2.27890125079303   -0.63663124904012
H           2.61814101571449    2.54808706284415   -0.42659921156334
O           2.22301396878439    1.29867661217286    1.82426654695235
H           2.09139339025694    1.45327153525361    2.76057048091112
H           1.35434338366098    1.48451604922558    1.39375185661982
O           1.57529589036922   -0.11263625165308   -1.92796146271231
H           1.87536752395730    0.81971849798310   -1.86777989477099
H           1.87033054353888   -0.70247122686622   -0.56766703226431
N           1.86629655069216   -1.00188537391770    0.48034687163506
H           2.32235391355916   -1.89506798562525    0.62987483423780
H           0.83824908464752   -1.02606746094431    0.75040062522652
H           2.28852267815792   -0.23996300739412    1.04929045914287
