    26
        -50.46887299  Gyration_radius:  2.48658789596 Dipole_moment: 3.040
 S          -0.50840237478995    0.55111616005384    0.95122007224135
O          -0.64197477820266    1.31155807164513   -0.29861603366665
O           0.85563719613989    0.61992072252731    1.46067438111943
O          -0.93477933145752   -0.82844230433441    0.76013226975224
O          -1.40110876693901    1.22075201331007    2.01779961928860
H          -2.33875748268910    1.19459712481715    1.68437933198379
H          -0.07652078927704   -1.81592610213776   -0.27930920138589
O          -3.78210582159091    1.23028957271427    0.97011519516590
H          -3.59637844732617    0.72365204804710    0.13974083370094
H          -3.99316879551660    2.12635557445906    0.69956257674178
O          -2.76713890705630   -0.02363429085929   -1.11714618602763
H          -2.51132694648770   -0.84854545027117   -0.68847202900890
H          -1.98556665030934    0.55339339341633   -0.99323162747321
O           1.02930549095763    0.30385035423161   -2.00438534072177
H           0.80394339820075    0.65545408032621   -2.86753058503566
H           0.40158915859973    0.73041257010307   -1.36378810569811
O           0.63334520430601   -2.17559822841509   -0.86060991725804
H           0.78652992754444   -1.47409379166144   -1.51615577916218
H           1.77861599898998   -1.91968138422324    0.18144952293422
O           3.14722929334415    0.80224282812476   -0.32680187964140
H           2.58776010489879    1.23458365483348    0.33200833208225
H           2.56736622149747    0.68844432049243   -1.10053623223585
N           2.37598094017681   -1.39694593328769    0.90203730296599
H           2.84036968131214   -2.00341713963474    1.56728706765941
H           1.70420317833048   -0.71027951690411    1.35781124134369
H           3.02535328719523   -0.75005834740269    0.39236518036171
