    26
        -50.44623448  Gyration_radius:  2.41122821993 Dipole_moment: 2.541
 S           0.55207864096356   -0.37828284216516   -1.55617487811691
O          -0.81898118381095    0.08120935329793   -1.72271374625986
O           0.85087118954487   -1.57299260553187   -2.27516155497434
O           0.82057391840282   -0.57347710528292   -0.05889750518054
O           1.47588378176541    0.78346772345972   -1.92434549432551
H           2.06660543075871    1.03539881582934   -1.10107901519416
H           0.49132601777445   -1.55176778171216    0.18725761974030
O          -1.02177860568454   -0.21272148248229    2.30173996687919
H          -1.68523347340108    0.26495000739823    2.80322819944872
H          -1.46583703855441   -0.55910970873973    1.50805677562908
O          -2.39975175692310   -1.08284438546409    0.04455936513385
H          -1.84467501801700   -0.66847091658283   -0.65186668220398
H          -3.28419049506812   -0.73592017477681   -0.08968899445364
O          -0.75579336119041    2.50573362930907   -0.63258109473749
H          -0.32228611759110    3.05153601790264   -1.29063043650756
H          -0.86176011801887    1.62696041109791   -1.04836980506485
O           0.70364499612013    1.84321193587716    1.57958800538894
H           0.11276109759036    2.18026862159351    0.87890123940096
H           0.29518715997777    1.00828953426238    1.87153933903766
O           2.78432780353292    1.48483141748964    0.09199227978632
H           2.02974663913873    1.54245702979735    0.76243804577622
H           3.10798012047636    2.38140392533638   -0.02451785594489
N          -0.09339163893271   -2.90577198365701    0.14303199318170
H          -1.09357359235705   -2.77555674860301    0.24023030871309
H           0.22816321367580   -3.62191988399364    0.77868119307352
H           0.12810243985229   -3.15088277363705   -0.81521729821423
