    26
        -50.45543835  Gyration_radius:  2.47537272863 Dipole_moment: 1.147
 S           1.07788835800216    0.75922426826200   -0.98746429077917
O           0.58803422046681    1.18803317024086   -2.26395175157345
O           1.00479274903721   -0.67391972312677   -0.79502459559393
O           0.29536627871138    1.45266355925766    0.14360510286070
O           2.49442492783584    1.25077703662248   -0.77328522852709
H           2.72416132367421    1.14616163909107    0.23661436737671
H          -0.71085092393326    1.31031913669075    0.02727157940958
O           3.02061629263066    0.87182637509619    1.64684770935208
H           2.44711672111003    0.05885499448117    1.83117709007646
H           3.93247227479222    0.58354244146350    1.73340123423917
O          -2.15585265541582    0.93803271540797   -0.23853272186187
H          -2.35476588350073    1.20458360602872   -1.14566184860086
H          -2.07286370059459   -0.04807047733764   -0.30102772035522
O          -1.53353475078240   -1.55732378382906   -0.79965140786211
H          -0.56751432765560   -1.41201959399515   -0.79157786304127
H          -1.79956507538069   -1.42096097875068   -1.71787216681855
O           1.57590033166064   -1.24339384320257    1.77597641943385
H           1.43979390814301   -1.26689782296953    0.81360484461278
H           0.66715521405263   -1.11915015964695    2.13989851418571
O          -1.82646613439789    0.29466375591020   -2.94126625068512
H          -1.99218588845253    0.43622705588083   -3.87439269673566
H          -0.91517911188330    0.61432038066732   -2.77866053865616
N          -1.06557975000894   -0.87892686097073    2.28651012266608
H          -1.53527969372393   -1.16322925134238    3.13663095834553
H          -1.45171763456168   -1.42011448750781    1.52093729457441
H          -1.28636708984986    0.09477682767011    2.11589382378595
