    26
        -50.44658089  Gyration_radius:  2.63420205902 Dipole_moment: 2.921
 S           1.42131928841274   -0.58731648042620    0.77647516467935
O           1.35929158987270   -1.75148856772427   -0.06175089396401
O           0.39216785080991   -0.51258586328873    1.78371653378236
O           1.38844811092495    0.68585188236104   -0.07387706818752
O           2.80423003087597   -0.52331936281865    1.44014877830066
H           2.72104791588103    0.26700436256838    2.08686330198122
H           0.41667308932915    1.09159347592391   -0.14325090197451
O          -0.93660030880294    1.55612372746197   -0.22681259873211
H          -1.07007925866632    2.12143514716722   -1.00346282928250
H          -1.42941399225703    0.72550698321759   -0.47164057120857
O          -2.28426266231816    1.94121070982420   -2.61003574433667
H          -2.38936797789015    1.00568427984341   -2.38939851624370
H          -3.14475549866707    2.25418361935886   -2.89135985453262
O          -2.03545872381488   -0.60328910783763   -1.25664119320622
H          -1.29617867492339   -0.88382132421042   -1.83233773122029
H          -2.03245867446507   -1.25542040887337   -0.52479095519682
O          -1.35750623425338   -2.28815052388472    0.73013273642884
H          -0.91255848753045   -1.64091258956691    1.30279644281657
H          -0.63537545657197   -2.78335278925325    0.33185821978049
O           0.22550613839517   -1.45278082469096   -2.47560284351188
H           0.38852735877961   -2.25212472868948   -2.97879747434365
H           0.73753040296431   -1.53715415355454   -1.64892321923957
N           2.08702131873163    1.44326348083918    2.92424602384738
H           2.34674080207350    1.59979664419659    3.88919142365330
H           1.15009430247171    1.05068330423723    2.88655084406157
H           2.08541774061751    2.32937911791311    2.43670290586353
