    26
        -50.46584502  Gyration_radius:  2.42913546605 Dipole_moment: 5.375
 S           1.01169793416048   -0.71944962565087    0.85719519330502
O           2.08270602426985   -1.16894532902724    0.00168279598565
O          -0.18303015889950   -1.55442553307667    0.74625459497945
O           0.57404154419083    0.72233915484605    0.37023011720386
O           1.38854776700136   -0.48319015330188    2.24427162045516
H           0.34700236038100    0.45039468588628    2.69438817491676
H           0.34648453985191    0.66356796692958   -0.60108997055865
O           2.69092219216700    0.28532469177775   -2.13642339975104
H           3.45736749782990    0.82164863067675   -1.93150696095622
H           2.55450562720342   -0.29925928606922   -1.35937559186118
O          -2.22034966773874   -0.05377760229367    1.38585119761889
H          -1.57721065197596   -0.76280954849438    1.14696805225117
H          -2.37511480144713    0.43833825084669    0.55042211459787
O           0.01452346960188    0.44313627810659   -2.14926146260300
H           0.93133054808715    0.59922050801410   -2.44140446123173
H          -0.07907008151267   -0.54505388989637   -2.17140478690187
O           0.04543148222703   -2.16375478031925   -1.80429779319564
H           0.97844956846447   -2.38700048455863   -1.86441207371882
H          -0.13089515112408   -2.09500690861904   -0.84188154599653
O          -2.45122493656543    1.09592438958116   -1.05605174289193
H          -1.59297692091280    1.02583976262313   -1.50415284368666
H          -3.07189518356913    0.59577888070067   -1.58977854748985
N          -0.48537358726277    1.13603317776497    2.86156214449639
H          -1.31312572025933    0.70288816002421    2.27941779744548
H          -0.23193897511313    2.03617680086181    2.46492254613728
H          -0.71080471906115    1.21606180271086    3.84787481142130
