    26
        -50.45742716  Gyration_radius:  2.50504078999 Dipole_moment: 3.597
 S           1.00033167199616    0.24217728208212    0.43670571426140
O          -0.11865271383504   -0.08737187323032    1.29327633909947
O           0.95691565907532    1.60076057727867   -0.04845336725876
O           1.06241215108657   -0.72902618313548   -0.72330182098709
O           2.30889810493423    0.03967583356647    1.18751567818949
H           2.33822190397449   -0.92401468239013    1.52940562446197
H           0.22830533107547   -0.55367603270464   -1.43713071172454
O          -2.29612199522537    0.50045769018393   -0.17123701655165
H          -2.24127003711320    1.47148468589267   -0.19335877798189
H          -1.65055444528154    0.23286648896924    0.50739769571380
O           0.02488399964737    2.24981357736680   -2.55627998415761
H          -0.66102656708213    2.84036369579349   -2.22601820248360
H           0.63748755140902    2.13446489895810   -1.81247340524238
O           2.22150121143335   -2.32845605013120    2.08589745759333
H           2.01379201890683   -2.25702862874201    3.02046112742989
H           1.39632638742788   -2.68739128285298    1.63668644090819
O          -1.30226060593156    3.05756909859278   -0.06991852201488
H          -0.44262335460205    2.60316951980421    0.03625613511188
H          -1.39841121640400    3.63847929815551    0.68581155241174
O          -0.82784237670653   -0.22345130649047   -2.20274348890385
H          -0.55617204864215    0.65850980888699   -2.56549661446985
H          -1.53982199885372   -0.02526732722782   -1.53004887354397
N          -0.06294852564804   -2.91538669623667    0.91975497059141
H          -0.79131440124926   -3.56486722698250    1.18790139367392
H           0.09349222613718   -3.00663089687586   -0.07630781179040
H          -0.39354790056604   -1.96722427859716    1.08569847765026
