    26
        -50.45742715  Gyration_radius:  2.50507277807 Dipole_moment: 3.595
 S          -0.05522829263347   -0.84194772161014   -0.73371616027716
O          -0.23275769392165   -1.82494090531606    0.30810279821782
O           1.16138071282459   -0.07290367242116   -0.58274957814977
O          -1.24800124225307    0.08919364046765   -0.78693449484927
O          -0.05614763314625   -1.55731667543696   -2.07731780089794
H           0.06943500670018   -0.85882387448279   -2.81406255238207
H          -1.44281898166381    0.54738164248677    0.20723116165940
O          -1.85842766468750   -1.39566751912418    2.48788337572373
H          -1.52184331953209   -1.77779551005786    1.66173103706550
H          -1.15250402916956   -1.52746782696257    3.13018298751782
O          -1.55237376226635    1.01781756077083    1.46296869177974
H          -0.60072908034340    1.15859651503828    1.73412217230537
H          -1.85153519672284    0.21487867967118    1.96202135557713
O           1.05325668196948   -1.68645026847068    2.66502017804189
H           1.84660997643578   -2.22166849871770    2.70884652844967
H           0.66553595463161   -1.83572193247954    1.77955499019236
O           1.01868003575079    0.95015241355033    1.90015531668638
H           1.13162583218880    0.14454305549530    2.43361060075220
H           1.25783843737314    0.68140253357852    0.99492241055753
O           0.37812084998056    0.24167697334906   -3.80866980312067
H           1.29768889218456    0.15119047351672   -4.06921709464528
H           0.31966223925167    1.07843602227603   -3.25361687362511
N           0.34979685935422    2.21973792991889   -2.07408878663374
H           0.80389483146070    1.62411609558349   -1.38496036936408
H          -0.60178031890066    2.36613814378136   -1.76105309940269
H           0.82062089515259    3.11544270558111   -2.08996697121831
