    26
        -50.46160705  Gyration_radius:  2.49136260133 Dipole_moment: 7.171
 S           0.98645146403240   -0.01739064966309    0.46823827688342
O           1.15012846923979   -1.04440468323727   -0.54735433867472
O           1.14236115291548   -0.51056999183395    1.81423295999538
O          -0.48315763975235    0.53734580447661    0.33188174122895
O           1.80427692084988    1.16862200652541    0.18829352610166
H           0.95498235439975    2.31407705729818    0.08160013929800
H          -1.12236653998568   -0.22677116364155    0.54569520114067
O          -1.09033995270104    2.03532541231188   -2.03966225955749
H          -1.63962871578199    1.37561948871051   -1.60523590647073
H          -0.31309380290038    1.52502129962858   -2.38890769219197
O          -0.47312753158333   -3.17438937097714   -0.36178747924129
H           0.19917879636805   -2.49825149177829   -0.57129957628294
H          -0.23199170539167   -3.50627854602850    0.51180995101402
O          -2.02250452283958   -1.41854290821722    0.83589806263110
H          -1.66435903649971   -2.09916586699817    0.21077567288999
H          -1.72866627376248   -1.75009648156621    1.69809711702703
O          -0.18849885826116   -2.66924994233553    2.47072018218348
H           0.36679311949692   -1.88786287730308    2.23840436385407
H           0.11643412652235   -2.95802797509461    3.33151242271604
O           1.09406606416207    0.65579970679083   -2.53128375402494
H           1.90913771391856    1.13215792004540   -2.35919259504444
H           1.09322559380034   -0.07347205688238   -1.87114869908586
N           0.21628102641875    3.12340647705768   -0.06450597631240
H          -0.38620433049857    2.77419051800097   -0.89327232213289
H           0.66674802044615    4.01041692019947   -0.26517661005255
H          -0.35612592250672    3.18249142436435    0.77166758140068
