    26
        -50.45257009  Gyration_radius:  2.54193521839 Dipole_moment: 4.519
 S          -1.19972437108206   -0.53702398037061    1.63494732044234
O          -0.07574030490223    0.29513481014666    1.23480687714359
O          -0.83382943578101   -1.62869478177203    2.46997606044043
O          -1.90951089505919   -1.01925213121802    0.34894873360200
O          -2.26890563130567    0.32980745024547    2.28904810591858
H          -2.62782760578782    0.92511849806803    1.54481635418275
H          -1.22793459736977   -1.45382716252067   -0.30205313879333
O          -0.07749219780282   -1.87052267711159   -1.14750048195273
H           0.17835265587529   -0.98707437394986   -1.49747286689364
H           0.61238254560131   -2.08944567892796   -0.48895149436150
O          -3.07464290467838    1.58115318054900    0.23265327682564
H          -3.30471952738429    0.82105674703064   -0.30938860372427
H          -2.37530142737218    2.06967459725679   -0.26781617833694
O           0.66335295462005    0.69528059191736   -1.29203286670362
H           0.42543045542201    0.64680306164019   -0.34460197357655
H           1.63721563969067    0.54109900774938   -1.30862924763856
O           1.57034146780444   -1.83219109936726    1.01852018510286
H           1.22832871542442   -2.42023531782790    1.69866344947788
H           1.15308174742377   -0.97459868931617    1.21609885090318
O          -1.11469922313314    2.74528543006303   -1.15464795305227
H          -0.62260904949688    3.38260401342536   -0.63410353974189
H          -0.48051137630362    2.04680390940367   -1.40593067639559
N           3.21003761572786   -0.17736055709400   -0.96779667018710
H           3.89865534758552    0.44325853216289   -0.56123063803365
H           3.64833200511746   -0.66262527600054   -1.74071176930589
H           2.96793737718244   -0.87022810408083   -0.26561112534466
