    26
        -50.46824844  Gyration_radius:  2.38817252836 Dipole_moment: 4.291
 S          -0.50195392911307   -1.19126828674643    0.01802061572521
O          -0.45594781748681   -1.81501278496371   -1.27901107381498
O          -1.42226210506613   -0.04573214341137    0.07144571162717
O           0.92126208119132   -0.59159103766568    0.32315850402712
O          -0.75295748120436   -2.09709146111287    1.13099614787888
H          -1.07027913835434   -1.13217936245943    2.19114604075908
H           1.13203975839815    0.04281136530516   -0.44066632822053
O           1.30023426513259    0.94921691860673   -1.68531141223507
H           1.75989981978133    0.28415928403814   -2.22855126496740
H           0.39730415190318    0.99624056515960   -2.08768659986785
O          -1.20406376209968    0.62071886887729   -2.50327311722059
H          -1.15647019738859   -0.23111413448071   -2.94664734145994
H          -1.49317425529244    0.41269340165026   -1.59481991603861
O           1.75081800270956   -1.48169737734708   -2.75303610541564
H           2.34064483438508   -2.22220246852201   -2.60782916754896
H           0.92205831484748   -1.69740355692896   -2.27783791378924
O           0.99861890626885    1.01896098924724    2.60889439661745
H           1.45937776493419    0.36074240871781    2.07213480490480
H           0.68578899168910    1.68702860701178    1.94988602348920
O          -0.11551537418232    2.26031859287337    0.55821608664888
H           0.48179515162071    2.37261047468330   -0.18774218858304
H          -0.68342533475076    1.49981616356435    0.32389019103842
N          -1.29414349716681   -0.22012508715053    2.74963699433366
H          -0.35965098406500    0.30757497896934    2.85801397785518
H          -1.75669498892816   -0.39539292759088    3.63576275938617
H          -1.88330319776642    0.30791800966951    2.10121016486217
