    26
        -50.46932497  Gyration_radius:  2.52766558358 Dipole_moment: 4.972
 S          -0.12311778561876   -0.99333283841236    0.12782244617817
O           0.28203256863694   -1.46776913922219    1.43283378061345
O           1.02938959983809   -0.78419336856204   -0.75221064291363
O          -0.88612508126536    0.26672037996836    0.24239579304218
O          -1.04428931808241   -2.04849154888768   -0.49515926769411
H          -1.35713474553123   -1.72879251301552   -1.40817824254487
H          -0.16503618568523    1.12282156311446    1.27268531443321
O           0.59986407366271    0.24701904002039   -3.12178509827254
H           1.41751323201747    0.20093155639012   -3.61869765621574
H           0.80432340290694   -0.11426784641765   -2.22799637677016
O          -0.24008357982283   -0.38244120241975    3.76630473019462
H          -1.14156882671965   -0.59984572010441    4.00879412136730
H          -0.03421627499241   -0.93554310900505    2.97571108356827
O           2.59184202714091    0.17579976780957    1.11982814309210
H           2.67103411279274   -0.58393327460945    1.70372903323830
H           2.12143834329549   -0.17624307538855    0.32810365712530
O          -1.75346149566579   -1.13635456645509   -2.77271998056636
H          -0.91139764885442   -0.92340508139886   -3.20723322126268
H          -2.12134434252479   -0.25192252724952   -2.55269626275239
O          -1.81074627602928    1.42334956880433   -2.00967630261746
H          -0.98882425193103    1.48748716275573   -2.51085058902240
H          -1.55234901613805    1.10472560284435   -1.12529016955237
N           0.49245989259086    1.48954231788637    2.03601369799841
H           1.44649823972225    1.12485989706256    1.74829482531288
H           0.20720966365378    0.98461206746038    2.90892258665600
H           0.46608966260073    2.49866689705483    2.13105459736193
