    26
        -50.45027200  Gyration_radius:  2.62140040123 Dipole_moment: 2.275
 S          -0.59582760969390    0.95762256856469    0.08711049914710
O           0.64089019784569    0.37206387971501    0.54300314022448
O          -1.76745398543877    0.18373486340210    0.38261306056969
O          -0.51504453360020    1.19635699633005   -1.43107948419322
O          -0.75271504088823    2.35364578350392    0.67375851405500
H           0.11984182638375    2.88898483448757    0.54980849876689
H          -0.87411556088925    0.33104189048404   -1.87432456189978
O          -1.91404807954536   -1.49333075277876    2.46452170310070
H          -1.82526521430628   -0.83078381096472    1.75210513474144
H          -2.85444769608766   -1.56998781481581    2.63729868378424
O          -1.36557217877026   -1.03853484599480   -2.17575159400203
H          -2.12655346873229   -1.11581906726041   -1.59171541637058
H          -0.63508339709177   -1.56509650184196   -1.73542947004799
O           0.49823591193469   -2.05666824779226   -0.68502760118498
H           0.08832308932488   -2.69873024249127   -0.06523231260602
H           0.68678467125128   -1.26618796838671   -0.15458625102198
O          -0.67009286563760   -3.54794385680417    1.23705690324133
H          -1.14656392397002   -2.84041021957039    1.72237526742671
H          -0.03095516947828   -3.90889705941450    1.85335565403856
O           1.47350305871175    3.51669224703203    0.39630761548864
H           1.91282221938273    2.93021858871481   -0.29411106166615
H           1.94025290280851    3.35923595714220    1.22055748956007
N           2.42366024783724    1.70128722506639   -1.25161226091810
H           3.37782575382484    1.45209721716279   -1.47946722109316
H           1.88714822733003    1.72288549876102   -2.10997054566207
H           2.02445062764225    0.96652286773171   -0.67156439365258
