    26
        -50.44989643  Gyration_radius:  2.48342114124 Dipole_moment: 2.570
 S          -0.31417691355778   -0.82596154153846   -0.33225964455813
O          -0.44907088015338   -0.12273025862581   -1.56807892296535
O          -1.38486454202673   -1.69826529491320    0.03600616928748
O          -0.07807926076253    0.21101708484601    0.79978450298416
O           1.00147866237955   -1.62754978095457   -0.33940603748840
H           1.67858359920862   -0.99340675907924   -0.81435261218916
H           0.23804054916460   -0.29600027297154    1.63114316993636
O          -0.14172971627763   -3.40567099569273    1.65620861123909
H           0.49410424982435   -3.78774135579197    1.04643199686063
H          -0.78102756528285   -2.92185923843173    1.09799342516738
O           2.41750718199560    0.07515082169613   -1.50039781157734
H           2.19322503860554    0.94393225346604   -1.04358862860202
H           2.00944706818498    0.13559343918463   -2.36879278639136
O          -0.61767348077794    2.61232501570900   -1.86099608119630
H          -1.38369195153837    2.67126818935773   -1.26733007665546
H          -0.58703851334526    1.67238995133560   -2.08755851566474
O           0.81560778635089   -1.19279020703648    2.70369588980081
H           0.45126672519975   -2.08780055724558    2.47147757395275
H           1.77019813205553   -1.25147956131864    2.61512704567788
O           1.52840467038457    2.22250722308602   -0.33005226452031
H           0.83926568471915    2.55959134478439   -0.95207044692718
H           1.02529381971924    1.82056709597039    0.38637485539842
N          -2.59007739333351    1.54335563406873   -0.13832672479035
H          -2.26202380706529    1.55318935105533    0.81990748478999
H          -2.27032282353163    0.67243979673077   -0.54764012301561
H          -3.60264632994532    1.51792859239106   -0.11330005840491
