    26
        -50.45487631  Gyration_radius:  2.43826323669 Dipole_moment: 7.949
 S          -0.21344934518944   -0.16786445117749   -1.69415013176063
O           0.71257081276236   -0.97542115494948   -2.40990934678470
O           0.33764924257174    0.97366266075604   -1.00207616319288
O          -0.92653627420424   -1.06744428869797   -0.64453914828537
O          -1.34577578509237    0.31694424611801   -2.59876339145077
H          -1.82201274320465    1.06154609503813   -2.02803525112093
H          -1.27207170003701   -0.49029885555437    0.11361928965214
O          -1.71274104387463    0.35492389842100    1.32724137434482
H          -2.31319007426146   -0.16119528824998    1.87045511756992
H          -0.80939982275512    0.29504941573099    1.80389520182066
O           2.41517601231076    0.84816740720626    0.60212646150214
H           1.66238744743734    0.95595474030812   -0.02049266695328
H           2.97452229207090    1.61882198867207    0.49691227490733
O           0.62365610492010   -2.52005637473439    1.29758453529368
H          -0.09316787021124   -2.50046923703247    0.65639989664305
H           1.43729454471965   -2.41881157525465    0.75572337549721
O           0.54373080206874   -0.09996818304359    2.41869141424689
H           1.28083162524295    0.32287320502949    1.94966639050520
H           0.60669624270612   -1.05437804970750    2.17096200451826
O           2.52028593459203   -1.76512545490449   -0.44113759068848
H           2.72888805892821   -0.89626780550314   -0.06772211414905
H           2.00707907580398   -1.60085172165980   -1.24651454147834
N          -2.29572431475519    2.06821772766963   -1.01724879796754
H          -2.22042546894314    1.63114504866666   -0.10190793431849
H          -3.22015089154201    2.46359338969366   -1.12995639632660
H          -1.60612288207297    2.80725263718997   -1.06082387216116
