    26
        -50.44914893  Gyration_radius:  2.50095931539 Dipole_moment: 3.428
 S           0.91100407391398   -1.23878050012306   -0.12612733294198
O           2.20910411294331   -1.31939237903012   -0.71993877585489
O          -0.17686713635525   -1.68313673928528   -0.95817864823972
O           0.64704000996017    0.22312033866309    0.32148485559985
O           0.84687160779865   -1.98902567988264    1.20302151491230
H           1.32208672316725   -1.40204823439003    1.89907689202887
H           0.25916011570976    0.79721601465872   -0.44500344434223
O          -0.34966180579992    1.47790825343211   -1.62265816822101
H          -1.22561812225950    1.06591744253157   -1.65852099394597
H           0.20491491712388    1.01349097245545   -2.31431820478830
O           1.86903792530420   -0.31625767932995    2.78839549050706
H           2.26044392560220    0.31890643691332    2.18307798893839
H           1.01694309766249    0.09458924036406    3.08906781107264
O          -2.37604758256109   -0.28010842180045   -0.90802823782902
H          -1.59319864884492   -0.88042683827998   -0.91454315482637
H          -3.14744799608294   -0.83822008651748   -1.01584500528335
O          -1.88743258093771    1.49194141707332    1.16168444461918
H          -2.14470203686709    0.81790561211173    0.50921100701575
H          -1.36170688120764    2.13334320787783    0.67842404297128
O          -0.51293593660579    0.68176902392226    3.35074589419405
H          -0.97586772535590    1.00094870529005    2.54620236116799
H          -1.10033039229078    0.04597239345302    3.76194764502405
N           1.17290957653199   -0.08764234454294   -3.11399558297801
H           1.71782034990951   -0.50792801110089   -2.36215451777805
H           1.81663371471523    0.20922126390384   -3.83759212846807
H           0.59784667483094   -0.82928337833038   -3.49543573252899
