    26
        -50.46385745  Gyration_radius:  2.40993552743 Dipole_moment: 6.526
 S          -1.52251059718529    0.27846991462458    0.49194660809255
O          -0.24467860161557    0.96124887982547    0.72478392788822
O          -1.93056926276467   -0.50667029634798    1.62521840939604
O          -1.30401417390456   -0.64577886224648   -0.74529893421471
O          -2.52773215685883    1.23598801142370    0.01023504784137
H          -2.07540611154030    1.48051353135246   -1.26917468418729
H          -0.59314010851317   -1.37454505527411   -0.53216456955311
O           0.49536147225600   -2.29858709915483   -0.19647571928288
H           1.31161027721211   -1.78098624826951   -0.41930350435241
H           0.46478119471709   -2.34330124409726    0.77896074548692
O           2.48136825871984   -0.59336901909136   -0.58100953049130
H           2.50137497781595   -0.33575696670329    0.36803487907543
H           2.10620950298049    0.15999632110443   -1.05111748054447
O           0.91478179254447    1.79529168261539   -1.37655432272775
H           0.51164454451149    1.46135013499932   -0.51810805800435
H           1.37388171944252    2.60601073324477   -1.14873104687265
O           0.06682357589109   -1.97746573769308    2.47032588179214
H          -0.29180199659950   -2.65637557744953    3.04413021059661
H          -0.69332941706612   -1.39156013176120    2.23608192166696
O           1.96575325636538    0.05688280985723    1.97835507483093
H           1.17078646889988    0.52709105312021    1.67088830843422
H           1.61887721793973   -0.73645887855518    2.40499858939460
N          -1.57810476167671    1.53394900773567   -2.29136451450069
H          -2.01475581921840    2.20858728305603   -2.91115269711462
H          -1.64177654188831    0.58574517565019   -2.65762602740220
H          -0.56543469046752    1.74973055803135   -2.10587850524705
