    26
        -50.46422770  Gyration_radius:  2.42520363181 Dipole_moment: 5.622
 S          -0.31390805140530    0.83702412144680    1.13482556243600
O          -0.04849684447396   -0.48861963820912    1.68916747992490
O          -1.72291296832965    1.14134993923276    1.06281596569735
O           0.25293898540389    0.79701476701619   -0.34179503533652
O           0.50083945506681    1.86614136738224    1.76833549695870
H           1.84059252760018    1.56314954461202    1.28276561094265
H          -0.32772704350575    0.16101745667347   -0.84816725240807
O          -2.89469740547575    1.29090714592288   -1.31764846959625
H          -2.47378878870882    1.34925834639189   -0.43281261009461
H          -3.80022113096255    1.58137622587823   -1.20196553571425
O           1.30296081477907   -1.66097119100129   -1.90738503005601
H           1.54159947400456   -0.98759420885366   -2.54642399002677
H           0.33585934231012   -1.63026358849295   -1.84063179177720
O           2.21445931356713   -1.27187482231346    0.62622724204197
H           1.95906329457245   -1.51573486680942   -0.28851550650774
H           1.36478294228443   -1.16055179736006    1.11302606191796
O          -2.26768051148069   -1.62478704935217    0.82973833607897
H          -1.43368670168484   -1.38253199553608    1.28217758840103
H          -2.86722050154263   -0.90553201046965    1.04942035395896
O          -1.33370554310185   -0.88989236902539   -1.52731043060122
H          -1.72533240881404   -1.33145339493049   -0.73103991350744
H          -1.98618458572152   -0.21138159616458   -1.77847682936752
N           2.78177959067423    1.22465100907716    0.83689339398175
H           2.64355743358468    0.13924920903389    0.70293569843087
H           3.56620081238936    1.42987915670820    1.44739010318690
H           2.89092849901516    1.68017022913067   -0.06354652892974
