    26
        -50.45139072  Gyration_radius:  2.52597117583 Dipole_moment: 6.289
 S           0.34250703353051   -0.21105594479259    1.21895140077477
O           0.54219981032019    0.83792578177007    0.24402290720525
O          -0.13487252076183   -1.45118921253496    0.67736239046004
O          -0.61926707460359    0.28453203890579    2.30326016049231
O           1.65173027066455   -0.43777103455005    1.96825635364593
H           2.01045752480234    0.52709313644141    2.16659132694249
H          -1.58267761905518   -0.00528962777976    2.01682935717351
O          -2.76695344338556   -0.51168602558839    1.30794389198990
H          -2.48900276708669   -1.39230853198240    1.03687276101024
H          -2.68517869293450    0.06162886299415    0.48893507337934
O          -1.32328815443238   -0.39641001606941   -2.94558495194536
H          -1.05266734449743   -1.28899888554769   -2.69604597628431
H          -0.48110002422287    0.08110849611958   -3.04879707587854
O           0.36476606143871   -2.38220130307525   -1.78803658018053
H           0.60516605257628   -3.30690291409701   -1.71630375300044
H           0.17198738004582   -2.07531705959436   -0.88178835646054
O          -2.04784584961659    0.91001902239753   -0.72818622368400
H          -1.95767292377939    0.44519868060307   -1.59355476409612
H          -1.14159546197116    1.11062320709435   -0.45777245720194
O           1.29942649015119    0.24997947911351   -2.38496755384618
H           1.11192191542778    0.57078554906223   -1.49179690173794
H           1.30201115543203   -0.71402746560868   -2.32013109409595
N           2.22723735170973    2.02260140661045    2.19530099550266
H           3.17177171227284    2.37248888957488    2.10302185251011
H           1.77587599522229    2.47666167445343    2.97821101236659
H           1.70506311280830    2.22251176607224    1.34740622489837
