    26
        -50.44151179  Gyration_radius:  2.53417893745 Dipole_moment: 1.592
 S           0.47873423212374    0.05758398932198    0.49909192356938
O           1.13832007986840   -0.93076413951348    1.30886004949522
O           0.45812486159611    1.37454842484198    1.07044237447010
O          -0.97359631492781   -0.39631777548947    0.21275253718614
O           1.11282459505530    0.05248654066247   -0.88253731949080
H           0.40174530107779    0.25397479517217   -1.62443534540996
H          -1.53332118692411   -0.24960201353721    1.04779244011521
O           0.80170308278036   -2.83966792230692   -0.55278582151912
H           0.91894814302980   -2.24391303560957    0.20826230327693
H           1.65112175686080   -2.86968231288566   -0.99734471260493
O          -2.18883164169216    0.08539833160100    2.39670176977208
H          -2.56628843062565    0.96773106990903    2.35757467661217
H          -1.40438117091247    0.14740845037977    3.00145387671434
O          -1.34966789404697   -2.14677648268916   -2.05243004110513
H          -2.01616290289353   -1.99751710835838   -1.37742002514419
H          -0.56862178155289   -2.48403511005080   -1.56416095833290
O           0.15349555170782    0.40398136161808    3.55971167593996
H           0.39644296523818    1.03113219859707    2.85813415782916
H           0.66866372479857   -0.38562670752503    3.36062850533815
O          -0.60931265009747    0.27634090645884   -2.66754953139613
H          -0.97693985619199   -0.64503747881963   -2.52944491142785
H          -0.19690952097461    0.29697360412178   -3.53437023188262
N           1.36852622038192    3.13870933048649   -1.23026009697638
H           0.89917826918077    2.70858495436794   -0.43957056664153
H           1.88790284047491    3.93087964771870   -0.86897636827959
H           2.04830173670423    2.46320648155345   -1.56012036009521
