    26
        -50.45597418  Gyration_radius:  2.47062295918 Dipole_moment: 2.826
 S           1.69993480593149    0.24230015980160    0.23376592867056
O           0.89284765692981   -0.92789231701426   -0.02260198880618
O           2.00235803829343    0.44231621316763    1.62302461041606
O           0.98773789477792    1.47845141125525   -0.33854499009709
O           2.98440559189925    0.17681214451034   -0.57609622379110
H           2.70986153594023   -0.04348511728153   -1.54318291377619
H           0.09080395472399    1.64916515027862    0.15395291113210
O          -2.65954149465345   -0.27409005792238   -0.06170449076500
H          -3.57925797929958   -0.33152733875437    0.20105579727230
H          -2.17054803555643   -0.93576861968332    0.49135293123775
O          -1.15144068193501   -1.74359127389843    1.53863519713588
H          -0.35704059890604   -1.67346771850374    0.98046205981860
H          -0.96805104619651   -1.17085459143965    2.29638850361118
O          -0.18769009490840    0.40609303499147    3.07379957675720
H          -0.01823486838631    0.75372670853749    3.95131915340174
H           0.68491561791276    0.37502339947187    2.61736685971055
O           2.15557109375237   -0.47977685555754   -2.87050601958593
H           2.24013414533448   -1.43604985654516   -2.88933451324426
H           1.16596410624231   -0.29018668803309   -2.81881130845629
O          -1.18242937520672    1.72162442251633    0.90182398414522
H          -0.96490351254904    1.34701516503606    1.77680494230073
H          -1.78772735557886    1.07012434721600    0.47236577989715
N          -0.41688319224260   -0.12185699308780   -2.44559326353397
H          -1.20347976330215   -0.55738800862019   -2.91036243290001
H          -0.63668120056322    0.85752008969178   -2.31532152163016
H          -0.33062523244972   -0.53423680010422   -1.52005859892514
