    26
        -50.44828322  Gyration_radius:  2.46651993916 Dipole_moment: 1.840
 S           0.80233448535630    0.92543199908332    0.49782594040270
O          -0.25629478849098    1.82387938666441    0.13477720228439
O           2.12122161656594    1.41762951281552    0.22498010259295
O           0.60897100918482   -0.43187618654632   -0.24496511618658
O           0.63436709071112    0.52318277418908    1.95353794788564
H           1.07229415451474   -0.40969908772000    2.14464771442881
H           0.56485546483364   -0.24232235568136   -1.22703747813853
O           1.48029552935563   -1.77494605540928    2.41141057456237
H           0.75964508697302   -2.26411141946573    1.89589281207289
H           1.32871097611501   -1.97038080129604    3.33940805712869
O           0.58200228356662    0.28327440554875   -2.72736302915062
H           1.27191969815518   -0.12282293764158   -3.25666862950665
H           0.85800648104322    1.23233075120643   -2.59180168640519
O          -2.07523976325673    0.58814040932074   -1.49616856286995
H          -1.50707972924578    0.36037791226448   -2.23705890882618
H          -1.55176645943509    1.18511816151882   -0.93836124722035
O          -0.47728156993225   -2.79525997056617    1.07902710153617
H          -1.14429697161948   -2.05124082060727    1.16225105103175
H          -0.17616170782831   -2.74905639098480    0.16912604429498
O           1.38020610219767    2.66650085048602   -2.00852766335875
H           0.61613036549633    3.12478453771534   -1.64567298498162
H           1.87703079658620    2.35378534844137   -1.22759087830954
N          -2.06847254229165   -0.66730073948485    1.17136166015529
H          -2.92959463155019   -0.64442332604347    1.70362338213126
H          -2.30012608959420   -0.44095473701965    0.20548380651588
H          -1.47167687737419    0.07995877921756    1.50786275795474
