    26
        -50.47281782  Gyration_radius:  2.43966655105 Dipole_moment: 3.067
 S          -0.61660261012341   -1.28012925580318   -0.19394669898947
O          -0.03553896280162   -0.99844151441571   -1.49641364163831
O          -1.85233379252818   -0.54717110384676    0.01367162000640
O           0.33556419088153   -1.01097875511907    0.89053378291577
O          -0.92837256479709   -2.80807405078842   -0.17516872759283
H          -1.10772380188876   -2.99865784969313    0.76487362786389
H           1.59484231242694    0.10963775588721    0.57185954344403
O          -0.77711618006325   -2.75897732290440    2.47393755995909
H          -0.14452872445392   -3.37186906898102    2.85498795433965
H          -0.25883856531482   -2.01887197505350    2.09459177178433
O          -1.25501226478767    1.27741160275782   -1.99175063619474
H          -2.09097183335202    1.05103593622556   -1.56940376860945
H          -0.76868127767391    0.42342610777535   -1.98501910313673
O          -1.27819210006354    1.20138538113984    1.85896573010581
H          -1.64005929949483    0.54001111526701    1.21950273064220
H          -0.65349829770012    0.70165904545490    2.39095692341027
O           2.44158579587499   -0.29235962179386   -2.18197736079755
H           2.36896434563528    0.05163572253976   -3.07365415335238
H           1.57340627831847   -0.69412348198452   -1.97666167529002
O           2.14183839023341    0.85066910172233    0.23823037244202
H           1.02730838264678    1.90541697679827    0.03619353049045
H           2.47563363378935    0.53039266250306   -0.62295457241342
N           0.09959928308648    2.44605036180299   -0.02698542654699
H          -0.47459744095700    2.12239718220262    0.80230657566497
H          -0.41593200620627    2.11867827247854   -0.89129865997585
H           0.23925709931759    3.44984677580669   -0.02537731852761
