    26
        -50.47393307  Gyration_radius:  2.40326056987 Dipole_moment: 4.924
 S          -1.61079184299199   -0.19689997204040   -0.39236536318794
O          -1.10138383398676    0.91932059886535    0.42530146864612
O          -1.98447915687840   -1.32985182636255    0.41962087716830
O          -0.63235796526544   -0.54326960584725   -1.42221994540126
O          -2.89221847913963    0.31786431833396   -1.10394198446633
H          -2.59983080322299    1.15655509435533   -1.51783258093140
H           0.61553429480593   -1.59843615178197   -1.02287288201586
O           0.63234398704049    0.16017126785074    2.28880447513538
H          -0.10494002163573    0.52197079839249    1.74987248107589
H           0.44169636843493   -0.79203918905865    2.35317370059872
O          -1.84098141052316    2.64166108945192   -1.87142921188866
H          -0.87692730137041    2.52569061748411   -1.89884951557608
H          -2.02786739256345    3.14650416928766   -1.07577158421532
O           0.72216507931693    1.67631044682595   -1.21909513649177
H           0.48194628390060    0.89297951707943   -1.74681923934164
H           0.08136562122129    1.58214750275552   -0.46929907294140
O          -0.05757014344225   -2.43308949044246    1.72941838383655
H          -0.39864446314918   -3.18742558024074    2.21227693177745
H          -0.83653798060212   -2.04955216605253    1.24187937945671
O           1.38026911701409   -2.02139215309355   -0.56876055981064
H           2.13076548549001   -0.74709114585596   -0.08268577289038
H           0.99704124841054   -2.41047659310546    0.23658795013845
N           2.36502686624253    0.21791392922793    0.33162972310165
H           1.96216830561716    0.93293123133336   -0.31915051167266
H           3.35788079332980    0.35005361208399    0.48334895633153
H           1.79632735394738    0.26744969054121    1.23917903357047
