    26
        -50.45621101  Gyration_radius:  2.46378943285 Dipole_moment: 3.896
 S          -0.37595485967442   -0.66466576398879    1.66763465764263
O          -1.47026144574700   -1.58484661880605    1.55974946759108
O          -0.67099613020222    0.64043631398110    1.11934413455713
O           0.88062458911668   -1.22896435258042    1.00080439249091
O           0.06331821697622   -0.52430224087075    3.12359493574653
H           0.95107956008281   -0.03475544322197    3.07502388724738
H           0.75939373786435   -1.48491870188934   -0.00566129186275
O           1.00140618568301    0.78164692019581   -2.24814052969716
H           0.04608820267596    1.01928147068910   -2.05321848969831
H           1.17945279448954    1.04701847277199   -3.15106649509415
O          -2.17777433521249   -1.78904781120692   -0.99413000941908
H          -2.58323158364246   -2.65243321586269   -1.09952516668484
H          -2.03364540963232   -1.68086707517709   -0.02892577249145
O           0.48980885422554   -1.71470961396512   -1.41964284437398
H           0.76318823043946   -0.85733989475037   -1.81463810424088
H          -0.48982713046138   -1.74245425856795   -1.44419447579562
O           1.66012512322562    1.69779793981377    0.38476428844730
H           1.78939311027759    1.36208399907618   -0.51190897532528
H           0.73874284227957    1.46650458757076    0.60437636103297
O           2.21831471626129    0.81076466131933    2.81389104056526
H           2.18758368998777    1.07528914961370    1.86111574730130
H           2.18659392101916    1.62940386344108    3.31499710488192
N          -1.53741893340088    1.12153620622871   -1.58442694191630
H          -2.12756412644920    1.91468127619152   -1.80198824216161
H          -1.38747475814386    1.11539765578403   -0.57626408227199
H          -2.06096505203379    0.27746246420043   -1.79156459647404
