    26
        -50.45621101  Gyration_radius:  2.46378897976 Dipole_moment: 3.896
 S          -0.75875786246714    0.92041396182255    1.39328535366618
O           0.47794620532134    1.18552982898639    0.69240302735500
O          -0.57625936167219    0.16389886973632    2.59755121682641
O          -1.74194839489722    0.22091893583757    0.45193879703042
O          -1.47401056119135    2.23644212055695    1.69155952699491
H          -1.74095168583980    2.59287648313446    0.77951329911125
H          -1.47396264002196   -0.75609852271934    0.19348143267981
O          -0.94618336738637   -2.06729416339066   -0.16294741734185
H          -0.43788451690635   -1.86055665228146   -0.97825854291798
H          -0.29236204055660   -2.23043018028973    0.54906679608357
O          -1.95993696053321    3.03041840331244   -0.68663591401921
H          -1.58330680477251    3.90066689242135   -0.83862557986127
H          -1.43485314488253    2.40664914023547   -1.24689727756077
O           0.61395102279727   -1.24200413019643   -2.17908428477308
H           1.34651009745558   -1.07236791955816   -1.51449496929357
H           0.98083146807954   -1.79778196904533   -2.86749399039931
O           0.66292230308696   -2.11227852360197    2.00761443124375
H           0.41499482344130   -2.74468643012311    2.68550216332819
H           0.29812750775240   -1.25030188904318    2.30428641020427
O          -0.15863249744506    1.49946534876085   -1.87430013962096
H           0.23857976991044    1.42499384347861   -0.98697340339494
H          -0.15026521592738    0.59822261618948   -2.22233464679809
N           2.32096114335177   -0.84024906466955   -0.19757442375696
H           2.20105040834661   -1.55930765691360    0.50814732275544
H           1.86317793926838   -0.00819829703681    0.17261343061374
H           3.31026236569092   -0.63894105558500   -0.27134262816077
