    26
        -50.45652782  Gyration_radius:  2.46355633664 Dipole_moment: 4.630
 S          -1.84030754088324    0.09912737912519    0.34243703090454
O          -3.10650531081250    0.13815820167873   -0.29941685224572
O          -1.12393089309049    1.36531323320634    0.39375524194527
O          -0.94072558834195   -0.92663170510633   -0.38362834057525
O          -1.97747969678138   -0.45207429672666    1.75638879776941
H          -1.03928969634658   -0.50239546809345    2.20721582925800
H           0.03786507596746   -0.63460173929396   -0.51884714010169
O           0.71687021498319    0.97597898866263   -3.04001869498985
H           0.62669095684689    0.43431328465289   -3.82538085198195
H          -0.18822097192715    1.28190014604624   -2.81354827695611
O           0.35641525231368   -0.59058020329645    2.67199564467419
H           0.72678370143696   -1.37014070509543    2.17236404178915
H           0.83565176548765    0.18963527213091    2.34560487025086
O          -1.75639029382621    1.64346290194107   -2.20572732640755
H          -1.51706470713100    1.89823214572993   -1.30261469057222
H          -2.50762876637689    1.05218730681767   -2.08277818182943
O           1.30999710754389    1.59119309931272    1.26817718535139
H           0.37047098099310    1.62549266045484    0.96532778505497
H           1.55921400860492    2.48836683429545    1.49442536139930
O           1.45216748892365   -0.20592374326986   -0.79273802580249
H           1.31420888493283    0.25385211106036   -1.65710012830228
H           1.63468139146971    0.48657795813576   -0.13444236324730
N           1.21647668812928   -2.54988401163109    1.07189540595547
H           1.75575240330654   -3.35476557928729    1.36330508162250
H           1.73163318801903   -2.06091124324460    0.34805766664949
H           0.35266434655777   -2.87588281817308    0.65529095041198
