    26
        -50.46050776  Gyration_radius:  2.39466254981 Dipole_moment: 7.683
 S           0.36216024642105    0.02967846775782    1.55074165281292
O           0.00302329376769    1.11178469447722    0.61448673578124
O           1.52938499924444    0.40826602261530    2.32885151643545
O           0.63557345534960   -1.20251218032610    0.78875846118138
O          -0.82667810284914   -0.20971372437725    2.47049499736543
H          -1.64483910178536   -0.49974639618180    1.88583713604858
H           2.14200556037294   -1.05327712328874    0.37730290035861
O          -2.30450670125129    1.45366325618517   -0.54163803181659
H          -2.66434549103078    2.31642692129380   -0.33285062418346
H          -1.43915225668052    1.38546736530534   -0.07073905520434
O          -1.29898135139865   -2.21854409997715   -0.78633763708865
H          -0.52209968546719   -2.05163156174043   -0.22550559937471
H          -1.19302626507377   -1.61053735744003   -1.54119001007743
O          -0.76293387010449   -0.05235034597111   -2.41421365946882
H           0.11074345803172    0.27529307112268   -2.17464974620875
H          -1.40409693958245    0.51695053052844   -1.96666172448697
O          -2.71686760606786   -0.82681976554045    0.93217626897946
H          -2.83989848250130   -0.02532440421084    0.39283178476353
H          -2.32046261821513   -1.49125729156264    0.30515347938784
O           1.75443233343102    1.25845772209010   -1.26934922611758
H           1.05660844825144    1.24200227142233   -0.55767465253059
H           1.86273785919974    2.17884288842697   -1.51539630589157
N           2.99442821924621   -0.40604994912580    0.40644435797827
H           3.89536796338418   -0.87152838715435    0.39690818014594
H           2.73854782818915    0.07392220118077    1.32191339721523
H           2.85287480713742    0.26853715452315   -0.37569458598638
