    26
        -50.47393265  Gyration_radius:  2.40357245324 Dipole_moment: 4.920
 S          -0.79616053602238   -0.76484642720831    1.25218444560362
O          -0.95031061265356   -1.14459844775211   -0.16413479088817
O          -1.76488716760474    0.22830505842280    1.64963139431243
O           0.57966817165524   -0.33805721225291    1.50351525663270
O          -1.06048131692803   -2.04542667292680    2.09066757651762
H          -0.46707691597055   -2.70982194726213    1.68221257703389
H           0.99977570448730    1.25837554945900    1.17992865174436
O           0.46153294575526   -3.64736263015688    0.60399100617356
H          -0.19490352363290   -3.90815195982737   -0.04696176153303
H           1.09881438096511   -3.08259084309815    0.13616373115759
O          -1.26783307725016    0.93242679434731   -1.78822686792776
H          -1.31742042537835    0.10027823748697   -1.26852259497632
H          -1.53966232727477    1.62635113164190   -1.16225429065934
O           1.55527720898920   -1.39224122892084   -0.67319242543564
H           0.56466426891271   -1.38817056002962   -0.69548181809561
H           1.70587753553835   -1.04997839333646    0.22685194747144
O          -1.57692396740472    2.49728848413827    0.44050573358362
H          -1.68988534366812    1.64418602001599    0.94164740233746
H          -2.24217614212040    3.09312065650637    0.78810370145919
O           1.12466990701989    2.12510775942911    0.72925975287572
H           0.23289099165433    2.51333787324944    0.70297034673896
H           1.39122674897721    1.62749705827694   -0.72183221317698
N           1.33772639908921    1.10081851673885   -1.65848829726881
H           0.29205236057708    1.07669357913481   -1.89532233458298
H           1.62916006197614    0.11317343995616   -1.46773958247059
H           1.89438466017406    1.53428618426387   -2.38547654652173
