    26
        -50.44619334  Gyration_radius:  2.63064814135 Dipole_moment: 5.430
 S           1.03846262486236   -0.69582212760319   -0.31769825907413
O           2.16525273865709   -1.08631713991701    0.47734526291274
O           1.19969526866118   -0.83113786097591   -1.73731863978166
O           0.68229722372611    0.78712512543559   -0.00552818728897
O          -0.21280781091872   -1.45041136707476    0.10643257658450
H          -0.45741475207101   -1.26494122727098    1.11095991513225
H           1.32661605507977    1.32179753689442   -0.59229602799110
O           4.25565980600979    0.42568773324522   -0.18448903114196
H           4.62803476875563    0.76374288312075    0.63226755432977
H           3.60108125186702   -0.25490269365720    0.07403359674878
O          -1.41446712075427   -0.72662694189578   -2.42689116946631
H          -1.72417760502063   -1.57044513497152   -2.09211958598656
H          -0.44664947413611   -0.75068791089590   -2.33164854310025
O          -2.07878350461023    1.18802730517273   -0.57583958554899
H          -1.16881923835791    1.31688754643238   -0.28473500102053
H          -2.01305128444160    0.57623832176792   -1.33264370596090
O          -0.94181002954905   -1.04061627562258    2.45143362791428
H          -1.19387926045985   -1.89024422801396    2.81992788661449
H          -1.81124055333382   -0.52046162936180    2.27255270345998
O           2.41213319611030    1.70801246720105   -1.59383789367338
H           2.22029316177871    1.06785011181057   -2.28900000870228
H           3.23162215740819    1.38081917775104   -1.15231868745286
N          -3.12562638253401    0.23091184388922    1.85446625017513
H          -2.85689687132163    0.60586024804824    0.93547347244091
H          -3.34323122345696    1.01962765903386    2.45013288326935
H          -3.97229315197819   -0.30997344250098    1.73133858662145
