    26
        -50.44992970  Gyration_radius:  2.50792002868 Dipole_moment: 3.264
 S           0.13406950979426   -1.03932812710474   -1.20384325290924
O           0.92235372533367    0.14847799589392   -0.95258961390564
O           0.07670816050076   -1.44859753530331   -2.56714239731029
O          -1.29635722375722   -0.79253229375134   -0.67408557313718
O           0.67531953127631   -2.18266420537600   -0.33952156430984
H           0.17788255584237   -2.23738229186603    0.56465311440489
H          -1.27375918701950    0.00619734633472   -0.05534155907477
O           0.16737297479857    0.05338821069397    2.83037592932888
H          -0.34790186175692    0.69389966886534    2.32340964784025
H           1.08126164195154    0.08474746997142    2.45137187684295
O          -0.60028683641136    1.08176690140359   -3.22845315299765
H           0.27990126979340    1.45217822052389   -3.12861557503693
H          -0.48089647060661    0.11919796213393   -3.17233998663472
O          -2.23146356638612    2.34422137588716   -1.46939209927445
H          -3.10817137454817    1.97296976158095   -1.58107367805298
H          -1.67861814558466    1.94518569412665   -2.17377612118861
O          -0.49247016304337   -2.25400536389270    1.88563912740731
H          -0.10875083412898   -2.92295764524190    2.45638216023307
H          -0.30461603798989   -1.36330936501620    2.32127501391591
O          -0.87544850145122    1.38814962423888    0.58188092682929
H          -1.42995027706870    1.93139161118205   -0.02886592189433
H          -0.01185970952200    1.31450686445195    0.14176577432561
N           2.48909552248758   -0.05127835250240    1.45450753892804
H           2.97134576668125   -0.94024902977947    1.50136716673615
H           3.18581772072983    0.67855598493424    1.53871015212057
H           2.07942178012863    0.01746952762768    0.52370207682823
