    26
        -50.45465774  Gyration_radius:  2.4730538897 Dipole_moment: 1.441
 S          -0.93472474540974    0.25483252648884    0.88007222284348
O          -0.35959708080710    1.50142549043246    0.41941590420125
O          -0.42841837279592   -0.19692077367665    2.14484590853288
O          -0.68644418509241   -0.82037101797232   -0.18792908921994
O          -2.44883263381673    0.36637271198330    0.92001198239060
H          -2.70211522440693    0.94336928889471    0.10125260525191
H           0.33112080733381   -1.00720906582674   -0.26383582705379
O           1.80678258745316   -1.16288456832897   -0.14858242110787
H           2.10197759332592   -0.41563753152371    0.42223813293482
H           1.76183530584738   -1.92652583467994    0.48211201912682
O          -2.66990318142654    1.88072166141100   -1.06964404122113
H          -1.89817418804926    2.38290791583942   -0.78069864749905
H          -2.37037772893021    1.37236020899039   -1.86671527753051
O          -1.48496594138092    0.67682001689668   -3.10691669964471
H          -1.47787548788470    1.11389032258898   -3.96025434051473
H          -0.56490540673775    0.72132849395340   -2.76299485576856
O           2.05292323098270    0.80917248957157    1.63724393834655
H           1.77403839857187    1.64754922642772    1.25774988897373
H           1.27159860989502    0.47449597881557    2.10622159962804
O           0.90767881080582    1.03047305676792   -1.93517757288301
H           1.43727090588249    0.24727902686066   -1.75472053602117
H           0.52868490543511    1.30635050154288   -1.08181180327994
N           1.14885133298819   -2.72938836018837    1.90789110502996
H           0.59823589258829   -3.56597086759076    1.76122400417018
H           0.51389404156852   -1.99309504380866    2.21009507603469
H           1.79144174408392   -2.91134583405004    2.66890670428893
