    26
        -50.45465792  Gyration_radius:  2.47321189069 Dipole_moment: 1.437
 S          -1.19257945703017    0.19518919483050    0.50274278170539
O          -1.52059066665122    1.56652147875404    0.23439120626370
O          -0.24329514448077    0.00969410599784    1.58040969453549
O          -0.62206076864775   -0.45546493656599   -0.76607895047157
O          -2.45015290228381   -0.61135121609536    0.77526108417131
H          -2.12357132775944   -1.48465388830517    1.22090620326898
H           0.22838327261206    0.05622317892787   -1.06769389359248
O           0.52465797846046   -3.46101335867330    0.26061718875809
H           1.05984945519003   -4.20757121021345    0.53533995248198
H           1.11598105938842   -2.67548010947989    0.26997514563513
O           1.36457771660725    0.97466024356606   -1.35194299330300
H           0.85508611840884    1.54681766008219   -1.98127972075822
H           1.44708028124628    1.54016460091247   -0.54903926634625
O           0.99171915245417    2.40859188814772    0.87167919516157
H           1.11386380534732    1.86145215227481    1.65293941908028
H           0.03475078425363    2.40189105100202    0.70855208868005
O          -1.30893412511326   -2.52792914663853    1.92587228393193
H          -0.72728567647032   -1.91230367323430    2.38845396212056
H          -0.73497053910113   -2.97939370442729    1.25501517061556
O           1.96082654956668   -1.21009974797489    0.56782033674654
H           2.16177863568190   -0.69669534220811   -0.22111211518315
H           1.24797396936288   -0.73374797816365    1.02924234579917
N          -0.54993771482082    2.47493877300762   -2.44691948628470
H          -1.10215517239559    2.30633117921106   -1.60828512092890
H          -1.08404697837843    2.13624176718472   -3.23727830358841
H          -0.44694832508218    3.47698701833691   -2.54958820960874
