    26
        -50.45497407  Gyration_radius:  2.45948436195 Dipole_moment: 5.125
 S          -0.51611315108263    0.43028836544470    1.70871546841804
O          -0.37818027803421    1.80503806059516    2.06090053307973
O           0.67778667386736   -0.11835315819266    1.07411327084122
O          -1.70929581518344    0.16971879005517    0.80396090603724
O          -0.83906369133622   -0.40669191680354    2.94999126521490
H          -1.15519904092163   -1.30636756705386    2.61470520132353
H          -1.61779899025272    0.58520407021563   -0.18595017157816
O           0.04815081427513   -2.39078840896570   -0.14251464329220
H          -0.14293092406279   -2.11228886997881   -1.04547294698005
H           0.38645342557337   -1.58866853591554    0.30292007803330
O           0.37714839986902   -0.71655126642822   -2.47049984794300
H           1.14523089490604   -0.33546798131018   -1.98552809928443
H           0.58293025571543   -0.66294834032437   -3.40473791684545
O          -1.35286630900775    1.10609106391010   -1.45231879363060
H          -0.70476412237544    1.83895229239453   -1.21646873135016
H          -0.82826179395122    0.40923113083375   -1.89813868353482
O          -1.48137494759822   -2.69882485705440    1.99277638594388
H          -1.04915114494490   -3.39905906196816    2.48734571499535
H          -1.04744609664435   -2.67840820352620    1.10558458268019
O           2.31644081907992    0.34333406881915   -0.94264758914969
H           1.75454603540681    0.26798275338779   -0.14102386447047
H           3.08408865245448   -0.20620243669616   -0.77316238310951
N           0.43068550420095    2.79422713325608   -0.52168932182879
H           0.41951903884222    3.79529652666334   -0.66833626698100
H           1.36641005241928    2.45732687597884   -0.71512303659473
H           0.23305573876042    2.61792947259004    0.46259886996817
