    26
        -50.45356494  Gyration_radius:  2.4681970849 Dipole_moment: 2.846
 S          -0.67892067980250    0.33022644463700   -1.60180413705647
O          -0.12979703730752    1.55738898873027   -2.08154293783151
O          -1.31075010298098    0.45099089797227   -0.30153477217099
O           0.39449316145160   -0.76794746165923   -1.52800386106469
O          -1.66887650783562   -0.25257264920874   -2.60315112878650
H          -1.82544939279723   -1.21528079456097   -2.31081706374394
H           1.16849310342125   -0.53242979819832   -0.89667089653922
O           2.17265642512086   -0.11996317572877    0.14524600431209
H           1.83287706146610   -0.56105180682211    0.95076912906267
H           2.04322861109790    0.83798047133307    0.26163261762907
O          -1.39454670502180   -1.98730646423666    0.77414642549415
H          -1.48634746894582   -1.05382031306691    0.50740224153446
H          -0.56200104578005   -2.02207980741543    1.26415100150120
O          -2.05641915141371   -2.60082523374844   -1.69808871395908
H          -1.71717573230230   -2.53390675650525   -0.76964924999844
H          -2.99598356637443   -2.78570118706494   -1.62535330106531
O          -0.12822648993321    1.35971121349382    1.94374539364931
H           0.54814281565037    1.91313098010516    1.52845076508003
H          -0.73918760941746    1.13502981411856    1.21933060869004
O           0.83878537757631   -1.07116657118138    2.28928247300211
H           1.10668980680611   -1.26804156505880    3.18750834940422
H           0.40387802528192   -0.18044213515246    2.30764681290416
N           1.55838088924680    2.63904933255268   -0.02727361621034
H           1.22462234499296    3.53758194591076    0.30742471526874
H           0.93679950837353    2.37096362541541   -0.79542561085975
H           2.46463435943014    2.82048198535885   -0.44742126824600
