    26
        -50.45551866  Gyration_radius:  2.50653098881 Dipole_moment: 3.191
 S          -0.35084886742327    0.55750244959184    1.18219653561929
O          -1.39522260712596    0.60660214530415    0.17225844167417
O           0.32697836913761    1.79823517012286    1.37525928569117
O           0.63890847723486   -0.54978782755489    0.78814985533012
O          -0.93404712791789    0.06650557806841    2.49832907403212
H          -1.25823721100155   -0.90230315186301    2.37875351601125
H           1.34202368458159   -0.19444727282807    0.07623706166973
O          -1.81964381385350   -2.26725524119702    2.14188888439259
H          -2.14364122088120   -2.21103170977496    1.18945856213387
H          -2.59764003679650   -2.40453937961723    2.68670002067020
O          -0.26623422911820    0.56385702244269   -2.20539304410669
H          -0.83999120999510    0.93809210512379   -2.87589466477849
H          -0.73991927003316    0.65670092781573   -1.34788655073296
O          -0.19233222819775   -2.18214753923131   -1.53991357322939
H          -0.11989631006614   -1.32397538661836   -1.98425886740676
H           0.35981568304003   -2.11952797280126   -0.75403452666562
O          -2.54808238537137   -1.79128942576576   -0.28514109211283
H          -2.34674605598419   -0.84283341219198   -0.19645807350214
H          -1.82674822884987   -2.14168082649280   -0.84900766290475
O           2.15785880884190    0.32606151559303   -0.97298232777787
H           1.49611496378037    0.49391047403759   -1.66303216487388
H           2.46236006147286    1.22468993731256   -0.64595702489864
N           2.67582697174920    2.70871787384913    0.04330319072789
H           1.85737799432135    2.61818231778591    0.64504317169015
H           2.57473553720251    3.55875364924718   -0.49647410401477
H           3.48723028129212    2.81300799958443    0.63885606735365
