    26
        -50.45074902  Gyration_radius:  2.57425514712 Dipole_moment: 5.514
 S          -0.11695383266925   -0.26674337668621    1.58617412871014
O           0.17461069003226    0.71458067669094    0.56191356440855
O           0.37833238396432   -1.58112277504969    1.32326631664276
O          -1.65205561525525   -0.31724305338392    1.77232502289027
O           0.38039074651810    0.25511608499108    2.92523952739414
H           0.11127205764188    1.27159931116073    2.93185994127560
H          -2.00971925106634   -1.06006696886034    1.17526603735271
O          -2.15333226207678   -2.19247595272636    0.12858633807231
H          -1.89636025295354   -1.72070660537772   -0.68855733345463
H          -1.39984569531961   -2.74508977557965    0.36377993804819
O          -0.89266674428397   -0.59696442078972   -1.60513318345445
H          -0.58225754284150   -0.01574872517996   -0.89296282677808
H          -0.60394988014910   -0.14443411774804   -2.42877422246898
O           2.18875493623161    0.59458296760113   -1.41206014663051
H           2.20864277944720   -0.38340778293808   -1.39040435854834
H           1.61072106588609    0.84078346078997   -0.67808390197868
O           1.46466445933555   -2.02551645218640   -1.18734905420511
H           1.32376582955891   -2.06271114099251   -0.23156562317106
H           0.60681899937082   -1.75021549102926   -1.55124945453421
O           0.49323543670820    0.70128450642071   -3.49199166967025
H           1.19033613776935    0.81066230453937   -2.80228675250680
H           0.90604065540929    0.21554517370985   -4.20752228918155
N          -0.35324013856341    2.65477786933269    2.56622456127192
H          -1.31912733250978    2.83086624475562    2.80826741114776
H          -0.27456454760790    2.53723631480366    1.56071966062444
H           0.21648694746810    3.43541175371691    2.86431837869262
