    26
        -50.46557525  Gyration_radius:  2.40190543966 Dipole_moment: 5.463
 S          -1.31432360428834    0.83257196913522    0.42912076988890
O          -1.68153940756752   -0.43393010161924   -0.21724911465798
O          -1.14119826620503    1.89056375507246   -0.52554217441927
O          -0.13669668028937    0.62723005316651    1.28175108017670
O          -2.49807904752648    1.21883949435135    1.37057492031835
H          -2.50992985783573    0.49756495680410    2.02487764758080
H           1.23521326736385   -0.36739788073539    0.99187314111434
O           1.86716400909695   -0.99327831985416    0.58073386284477
H           0.93382657056223   -1.86652729377672   -0.09220631228998
H           2.22248806838227   -0.48794384674111   -0.20724903131577
O          -0.31737007294048   -0.03161202521652   -2.51542344310779
H          -0.49339007407859    0.81511916758419   -2.93200737263589
H          -0.91236925788981   -0.05350272238585   -1.74434545211658
O           1.42063373026078    2.58410435610651   -0.20634716826587
H           1.50569312018177    2.33994070202722    0.71842912197995
H           0.46926232277586    2.48176920698575   -0.40158168470817
O          -1.60304287739480   -0.71526654752206    2.98061199126686
H          -1.41929351913296   -0.49847904674025    3.89737635792145
H          -0.87475218668212   -0.33163647047683    2.45026532622843
O           2.25357150172999    0.41257680987786   -1.56393812421664
H           1.42535226088941    0.22846688890147   -2.04028226246279
H           2.12649839391637    1.30446160951428   -1.17577410437296
N           0.07164259127519   -2.30806576639467   -0.65113410438137
H           0.23640248698012   -2.22013447336436   -1.65222455114696
H          -0.73511051568271   -1.65871110417841   -0.40985530910969
H          -0.13065295591441   -3.26672336052749   -0.39045400010440
