    26
        -50.45374059  Gyration_radius:  2.49819425221 Dipole_moment: 1.614
 S          -0.90034443853811    0.86366396035930    0.56021021744138
O           0.37722671626019    1.47193292611350    0.28026199762646
O          -1.10355296472961    0.51898787117793    1.93571514086959
O          -1.05248406756779   -0.39101957215759   -0.32568481497293
O          -2.03768574390589    1.74794190607559    0.07071738917170
H          -2.06181450371089    1.65975353504232   -0.95273268029192
H          -0.34757453190236   -1.11291238184763   -0.02647741817198
O           0.63868008269733   -2.01339943684865    0.53090220118519
H           1.25004290067389   -1.41578671676859    1.06294185882343
H           0.07354043002510   -2.42002919469575    1.21441379135681
O          -2.04285972303318    1.29219419836528   -2.40906202681868
H          -1.13035389927720    1.33933382899155   -2.80199116569658
H          -2.26950976044647    0.35832397635527   -2.40780138240909
O           0.40525150269779    1.25316483616954   -3.37522980792062
H           0.95838947692633    0.70875279692735   -2.77014869231441
H           0.83931047294131    2.10602655940154   -3.43084418300600
O          -1.11915325026195   -2.10231089889349    2.55532782535593
H          -2.02730325642788   -2.37184146792712    2.69900606507881
H          -1.13568073537467   -1.13042570987178    2.45685687625702
O           1.80355005506647    0.00912205652119   -1.46987378779921
H           1.39744000491409    0.58805717593234   -0.79796606974618
H           1.63153266050510   -0.89482409865032   -1.19285819648352
N           1.91097053830118   -0.23899888795288    2.00276568051925
H           1.50592039914012    0.58967426475625    1.57448577964462
H           2.91079993666777   -0.10280252392593    2.08115400657304
H           1.52566169835792   -0.31257900263841    2.93591140573471
