    26
        -50.44688090  Gyration_radius:  2.58557069279 Dipole_moment: 4.160
 S           0.99158094414889    1.16420619449562    0.69646264299653
O           1.50677415720910    1.02048490087448    2.01792629527146
O          -0.44445402674014    1.03253027427305    0.59433729053380
O           1.63778386921533    0.11511974693498   -0.25856880111854
O           1.45476329029887    2.47197481764021    0.07594457787385
H           1.40437148060996    2.36589960223833   -0.94572053637980
H           1.30483266524777   -0.80536413325103   -0.02773401122276
O           0.80407925883919   -2.23782447606448    0.35654578308678
H           0.20185779900467   -2.22362387403538    1.14952787890946
H           1.57010494813734   -2.74928808439003    0.62562786558971
O          -0.87777801841119    0.32817136501707    3.15251571598658
H          -0.99903712684335    0.67215110406974    2.25113471262608
H           0.02717446990022    0.58816094125177    3.36609624016674
O          -0.95170905434058    1.11772196449174   -3.16861835294928
H          -1.11885313318423    0.32592391035669   -2.58731734331343
H          -1.64605910300312    1.74719253181913   -2.96726908172132
O          -0.72404371950856   -2.21825925468895    2.48354985391052
H          -1.62861232353623   -2.53106136429900    2.43234858320017
H          -0.77524855517159   -1.29030702376440    2.83129411518862
O           1.39881578161132    1.98990893646467   -2.39606966349742
H           0.50044625309621    1.71466335335220   -2.73069286999329
H           1.93628629682915    1.19346310465402   -2.41164391263599
N          -1.37740330384850   -0.81713839994022   -1.37830392476807
H          -1.18348414810440   -0.19067792954204   -0.59796548790002
H          -0.71047373122317   -1.57715502196133   -1.31986133520918
H          -2.30171498016820   -1.20687317600097   -1.24354623460839
