    26
        -50.45897875  Gyration_radius:  2.56381209944 Dipole_moment: 3.911
 S           0.19969848943867   -1.06630990574767   -0.12577236502910
O           0.16008098311418   -2.20990584768944    0.74452928073895
O           1.36305034676488   -0.20506778328793    0.13882741856877
O          -1.03481112738917   -0.26440917846613   -0.05344876322029
O           0.38038522595975   -1.52290211812876   -1.59941532549796
H          -0.48902732088618   -1.62336193745088   -2.08280802148388
H          -0.72012526756490    0.99364671947829    0.81538704609874
O           1.49909663918520   -1.26842133473814    2.79884003437516
H           2.24440493089147   -0.92770433152361    2.29783559301019
H           0.96117467568150   -1.74820599938476    2.12862658707468
O          -0.00540410565904    0.64582481563861    3.78300561525752
H          -0.79864925300011    0.21355389961119    4.10442841905291
H           0.61555890669444   -0.08981856117651    3.53040806245349
O           1.11854274770833    1.28563575003510   -2.04632477253414
H           1.61754326378804    0.88035508061432   -2.75748188770411
H           1.26855307276142    0.71258190983061   -1.26702338207628
O          -1.61548374495760    1.03522096684347   -2.31839412998281
H          -0.68678751843781    1.30752845362879   -2.42568590575944
H          -1.63162985449039    0.63316982485122   -1.43064708065871
O          -1.73120398879799   -1.49065133421877   -3.09349735027609
H          -1.45560009510479   -1.59511303780110   -4.00632736479643
H          -1.85985656016496   -0.52020201034814   -2.94205457995359
N          -0.03186666845025    1.61788827827594    1.33998879912781
H          -0.08524484436741    1.39248152875339    2.37645401733003
H          -0.13526713557406    2.60424492315420    1.12697780476789
H           0.85286821285255    1.20994120925224    0.96357225111781
