    26
        -50.45067623  Gyration_radius:  2.48165289066 Dipole_moment: 2.579
 S          -0.70441809668922   -1.31980423891573    0.12120303857118
O           0.33252077012651   -1.01710093458313    1.07428265661648
O          -0.26678988106192   -2.06137578554513   -1.02294346837923
O          -1.36121196774350    0.00532221703119   -0.34183790400312
O          -1.85729843984924   -2.03789249656341    0.81811503048187
H          -2.27939069045889   -1.33999895238727    1.43702640077568
H          -1.09190547992325    0.18308918715550   -1.30713424223779
O           1.89854543470493    1.10902945729858   -1.69492539910914
H           2.24286047381792    0.23860475099550   -1.33787777359868
H           2.63503822904430    1.55196919465056   -2.11866931162938
O          -0.39417161193962    0.10195432493526   -2.67463558414269
H           0.44445490005885    0.56727937264510   -2.47090306483993
H          -0.22084299335085   -0.84315717031376   -2.55342887521737
O          -1.50984467954654    2.07064519583454    2.06221131392001
H          -0.69693737095359    1.98051448412675    1.51573266059179
H          -1.20409705177481    2.32753326816736    2.93445733950999
O          -2.90278720898214   -0.16462272590529    2.16347089167688
H          -3.69899939198929    0.05656866835532    1.67458135645853
H          -2.33255203748383    0.65112184955733    2.11371541685676
O           0.86038475423570    1.62595141587171    0.90570771338553
H           1.13091855207245    1.69178399543596   -0.02045313350577
H           0.77235693242101    0.67388124808497    1.08220286646994
N           2.57029942679322   -1.26273086266944   -0.71899169085181
H           1.94565277887012   -1.24572259109358    0.08567756957057
H           3.48417849359845   -1.55839382668611   -0.39739322083985
H           2.20403615600842   -1.98444904551273   -1.32919057651844
