    26
        -50.45612479  Gyration_radius:  2.43717970108 Dipole_moment: 2.658
 S          -0.00882446440154    0.37099768792270   -1.25571378711596
O          -1.16386241452263    1.08367774456430   -1.71900803046769
O          -0.21235161888569   -1.05647517623887   -1.09969194352930
O           0.43056800313704    0.94666086680350    0.10830328843733
O           1.18224997655879    0.62880845709395   -2.14169051101905
H           1.88237662359330   -0.15451215027364   -1.91553502604974
H          -0.34606787322131    0.83105180816700    0.78146548596138
O           0.25217631311399   -1.75567543070251    1.53328948963267
H          -0.39899474277348   -1.23192641463333    2.00783471119011
H           0.03867297327723   -1.66505495561084    0.59169892135796
O          -2.38541017780932    2.72869868061176    0.04289180787430
H          -2.01402232630551    2.20841362042055   -0.69422105067225
H          -2.11242827975222    3.63543673498622   -0.10240172444646
O          -2.77517332721967   -0.85100643765838   -0.29898815461883
H          -1.93970378857777   -1.14835603581162   -0.69712583090329
H          -3.14584824948376   -0.21733141500862   -0.91907236999873
O          -1.61520531987660    0.64920219205855    1.55666507949563
H          -2.01547882450550    1.51580907289955    1.35404430793778
H          -2.15285924632125    0.01150141584430    1.02503203116160
O           2.59888385478189   -1.27233849019673   -1.45817544762483
H           2.80596953681102   -1.04377113736721   -0.47866473018832
H           1.89849334539857   -1.93317944297695   -1.42707915087781
N           2.84827669297422   -0.64404342903360    1.04758889753877
H           2.65335143631666    0.34774703338833    1.10543092801026
H           3.65687240804188   -0.85202255128121    1.61841548937888
H           2.03833947966141   -1.13231224797125    1.43470731952762
