    26
        -50.45413232  Gyration_radius:  2.46533355194 Dipole_moment: 6.923
 S           0.93232448086500    0.94790868707936    0.05547543948237
O           1.28787246395446    0.55755767590489   -1.27870394246359
O           0.94392262017022   -0.11324596466530    1.03418036624606
O          -0.46075270707263    1.57723547544298    0.04467343768613
O           1.85901042948648    2.08025723972854    0.50438102110405
H           1.62891008624690    2.21033880346082    1.49586964120050
H          -1.13363005374944    0.94355789805653    0.60201858081889
O          -1.84101348707967   -0.03309223589369    1.30201156973702
H          -2.15620906364023   -0.62991351646909    0.53168214557248
H          -1.12217412352206   -0.53104767882931    1.70933996823414
O          -1.07529926034633    0.15803875154437   -2.56046138290957
H          -1.54778011098252    0.99176673774896   -2.58840289147060
H          -0.20697354764634    0.35413161167078   -2.16681698532824
O          -2.20915487093544   -1.54041214105675   -0.71700451727866
H          -1.94706955897753   -1.00200781315363   -1.48588444260772
H          -1.42486879658764   -2.10498573796489   -0.52165760396485
O           0.18839007132510   -2.52918470183968   -0.11186235863984
H           0.64375237432580   -2.54925704504424   -0.97555352387530
H           0.58558615237364   -1.78942338305154    0.36979366837057
O           1.26124384676358   -1.91757409840535   -2.54330747250903
H           0.50580557145360   -1.73419598007807   -3.10880679006184
H           1.54211412589621   -1.05911915328822   -2.19568108199292
N           1.04362091892241    2.01862281982891    2.93501776731926
H           0.11674630682998    2.40695820016939    3.05198623092204
H           1.61262170608640    2.27959054414901    3.72958027743173
H           0.97300441583073    1.00749498494853    2.88813289899686
