    26
        -50.45275302  Gyration_radius:  2.51472971377 Dipole_moment: 2.609
 S          -1.50689154471380   -0.33839108824608   -0.60221600527573
O          -0.25711883459717   -0.71322056914845   -1.22976689623282
O          -2.20016389618509    0.71104625014649   -1.28145132613384
O          -1.22651168337901    0.05823844542976    0.86484308319853
O          -2.39952448068537   -1.55452480808487   -0.44385675397804
H          -1.94679360155529   -2.18436944741406    0.24557772379435
H          -0.66312926598456    0.89462995459654    0.91782016466203
O           1.13816554600427   -2.13025672484845    0.58073627512378
H           1.49039300494244   -1.41980651886397    1.16847699353920
H           0.80561503026230   -1.65878586239947   -0.20180730396128
O           0.13804418863601    2.22320273981226    0.92363124807720
H          -0.00624270755694    2.52591566182311   -0.03124172732778
H          -0.31730868385349    2.86651494029515    1.47145265573703
O           1.09767636109764    1.01453355530745   -2.80098462266520
H           0.89696787971311    0.77699718946509   -3.70781442114644
H           0.70245605848029    0.31865982853033   -2.24317370035965
O          -1.18564230758614   -3.06003046383243    1.15714463001247
H          -1.19491538090961   -3.95943891888577    0.82121065830703
H          -0.23609833357370   -2.72890619022427    1.05005697894256
O          -0.47011119943815    2.78396553480963   -1.50580874093636
H           0.20744627058710    2.34465663917270   -2.05932100120412
H          -1.24912351842384    2.20218982966610   -1.55646638074782
N           2.02308207488582    0.02422270369145    1.99486537381494
H           1.55815916481220    0.81986615703396    1.57036761571919
H           3.02171909466739    0.17157105569934    1.92064267640565
H           1.77985077435881    0.01152008647773    2.97708281264266
