    26
        -50.46577278  Gyration_radius:  2.4127576288 Dipole_moment: 4.005
 S           0.62303733018914   -0.99341873405664   -0.95759028108573
O          -0.17119602727111   -2.19504475955386   -0.93899608273295
O           1.20981768284521   -0.68976182730465    0.34804957992340
O          -0.34653607312522    0.21695467499964   -1.28444412180402
O           1.61275752253460   -0.91966009044567   -2.02416486929367
H           1.79131629285289    0.51879236291540   -2.20116305598708
H          -1.16852456873826    0.06270307893174   -0.74121803687786
O          -1.53405784808574   -2.92257529510367    1.20264029681714
H          -1.48724066950133   -3.87534638006880    1.28583068026377
H          -1.00873051941336   -2.70050537976551    0.40075177290305
O           1.75129603312669    1.86759124522528    0.36694164577276
H           1.70912060630114    0.89019382428668    0.48906663930998
H           0.89265015516887    2.18238152209603    0.72184703608485
O          -0.74436191433086    2.15061737410216    1.36314409395069
H          -1.45320548967618    1.90276187152282    0.76302046010825
H          -0.68027268652564    1.42920008799673    2.00342072952049
O          -2.34864884102559   -0.21731287691915    0.29136426212837
H          -2.67468116298950   -1.10464532423351    0.11493342040594
H          -1.81908236801873   -0.31143116605603    1.12451810475042
O          -0.60723634926601   -0.56727532648600    2.25179500994345
H           0.16283674789528   -0.62998341923947    1.64101816086689
H          -0.89339838264149   -1.48520869216107    2.36801379104990
N           1.80804894051317    1.61232252109129   -2.18856025380499
H           2.62602598473421    1.98136302283210   -2.66251510495079
H           1.80171980768122    1.85725082123866   -1.11849092715896
H           0.94854579678470    1.94003686411265   -2.61921295007226
