    26
        -50.46321963  Gyration_radius:  2.56584312887 Dipole_moment: 6.020
 S          -0.85474919910027    0.02520272877883    0.77336572496144
O           0.49835191529314    0.24785799916475    1.29632975289710
O          -1.84312586308356   -0.14708247833370    1.80063376696563
O          -0.74218940528315   -1.36489616315617   -0.02459878070716
O          -1.19137953878170    0.97636145944913   -0.26313803401604
H          -1.62781568371532    1.56948428150075   -2.34387623075361
H          -0.26579400784488   -1.93527221893174    0.65532578120651
O           0.59170852357287   -2.35269204763845    1.89815980901831
H          -0.07454095216591   -2.48213494474596    2.60777514375623
H           0.87640254877439   -1.42890908918458    1.99872217428062
O          -0.87236229108289    1.72260039926070   -2.92467440362509
H          -0.03029134596197    0.50294274428166   -2.55134563009372
H          -0.35246908264045    2.40696358865737   -2.43841219001259
O           0.44516272551018    2.98239875137387   -1.00212756290694
H          -0.17883045194987    2.41533062748737   -0.51059063357270
H           1.31430693007755    2.60205733493518   -0.83237444205560
O          -1.48941647433772   -2.09558416820546    3.53874850068508
H          -2.31546216763342   -2.58007181432923    3.57535835783978
H          -1.67197917785003   -1.29273941554012    2.99949372941881
O           2.27182221177167    0.85755123449836   -0.43650424794764
H           1.59930608346526    0.68556387241043    0.28844678844862
H           3.12196971692960    0.60688503153966   -0.07227023933813
N           0.56476726934526   -0.30603694549192   -2.13661480071695
H           1.37496481405222    0.12219283366756   -1.62816237121679
H           0.87076045691425   -0.95668766078603   -2.85313230223218
H          -0.01911754432536   -0.78128596061263   -1.41453770027687
