    26
        -50.46007691  Gyration_radius:  2.47011110343 Dipole_moment: 2.726
 S           1.10161072307973   -0.02657869503402    0.48369420443026
O           0.06226935920479   -0.94607757061295    0.95608413162003
O           0.51533629141444    1.23741700998484    0.07118573336587
O           1.89387204003783   -0.63784087168756   -0.57636566585261
O           2.03700326877149    0.27840472441940    1.68654665829126
H           2.57723179629840   -0.53773643533258    1.76200855869555
H           0.95410992420571   -0.76508534386774   -1.99530996124574
O          -1.59867199473024   -1.06793408722243   -0.93138438510390
H          -0.97403099995413   -1.20055688790379   -0.13008844444344
H          -1.97669407896670   -0.09642781963070   -0.73172696504179
O           0.19535180981177   -0.68293020455296   -2.61284218699606
H          -0.91608049314376   -0.96939548790436   -1.75260736022975
H           0.14724009114227    0.27949084871073   -2.81854039546070
O           0.05451651973265    1.96965520715995   -2.48143369368925
H           0.39797060293072    1.87341898842808   -1.57384527719124
H          -0.81850494049369    2.36017055874782   -2.39535599547927
O           3.34916270025331   -1.93144675172807    1.17280518067461
H           4.28840095201881   -1.87556945037296    0.98142295058639
H           2.88057315155890   -1.70195766290535    0.34513023571910
O          -2.13087429973444    1.25894937716031   -0.19046111025671
H          -2.41920326949683    1.04745711006827    0.73387737267651
H          -1.17532997874083    1.45379280916290   -0.07999533807012
N          -2.21137767611461    0.30735756073319    2.30075300281668
H          -1.97940400533529    0.94110230923396    3.05526677639373
H          -1.36511769440358   -0.21154566609735    2.06675339325670
H          -2.88935980934452   -0.35613357890279    2.65442857050754
