    26
        -50.45523602  Gyration_radius:  2.45586245148 Dipole_moment: 3.558
 S           1.20171390236144   -0.76359325186713    0.19181782611230
O           0.60410097646783   -0.37910448757285    1.44949217374373
O           2.21693122149168    0.11862584409539   -0.28567116942321
O           0.09152793129539   -0.90859459280511   -0.86707639339635
O           1.76383803295393   -2.18137758294129    0.29727771933429
H           0.97294795117800   -2.77804186146421    0.51570243868746
H          -0.78966409818365   -0.45204393347974   -0.60758986543799
O          -1.75950291498282   -1.53206105730394    1.84127082755546
H          -2.26889243648257   -1.01012063650642    1.20948362731521
H          -0.93705159926603   -1.02298812635809    1.96219351333476
O          -2.06666317827325    0.28473609725249   -0.31192288454303
H          -2.64641907527357    0.23780663333823   -1.07516296459810
H          -1.68197904028618    1.23643680905333   -0.31514008533879
O          -0.91613794171817    2.53835275096307   -0.50964813333551
H          -0.30225053973367    2.63103606105145    0.24723670768484
H          -0.32346231113779    2.35187686241583   -1.27754061217752
O          -0.31685704603108   -3.52140767957739    0.91598224430385
H          -0.96989846714417   -2.84293388627518    1.23911796582060
H          -0.15265041685944   -4.10846444150884    1.65761570287615
O           1.09453344724898    2.27692140180745    1.27840840364537
H           1.88603186718688    2.15455390906807    0.74641069967324
H           0.87142975864317    1.38627582544716    1.59056666452367
N           0.89496255528881    1.69851621599106   -2.34399490566340
H           0.56731246272406    1.05924614579844   -3.05763861331442
H           1.46344175443766    1.15363914232576   -1.69770980020544
H           1.50265721400651    2.37270784914955   -2.79348109710274
