    26
        -50.45523591  Gyration_radius:  2.45576359604 Dipole_moment: 3.555
 S           0.49344644900101    0.36138355350551    1.30082107422546
O          -0.23659116741515   -0.88480706984423    1.33208503269844
O          -0.27858634637361    1.51789516392285    1.62245215225563
O           1.13800866417672    0.53026666044062   -0.08863986799455
O           1.70225517448346    0.27717729293056    2.23293879730816
H           2.27364759996798   -0.48243706575926    1.87837600435196
H           0.73121925600952   -0.07440331854820   -0.81076132069394
O           2.97644773102019   -1.70347389137845    1.25324455137717
H           3.23829102411309   -2.32801256971005    1.93365860448375
H           2.31192377135242   -2.17732683235148    0.68297906751345
O          -2.05794388972747    0.45616814207042   -1.75959634757497
H          -2.48795064259447    0.22970102417207   -0.90980372310582
H          -1.68492383034831    1.35800580027167   -1.60665454870809
O           0.10008643022988   -0.86958214404496   -1.91955319815421
H           0.48576765913697   -0.60952071702655   -2.75893591058742
H          -0.82762469860893   -0.43054093639339   -1.89379963168624
O          -2.69693496419123    0.13213437019176    0.84697076524198
H          -2.49401489877348    0.97624698627915    1.25991317906140
H          -1.95415385558789   -0.44220103588839    1.08965677722841
O           0.97913184481933   -2.80567379829281   -0.04678181654674
H           0.78138081380337   -2.47926146068646   -0.93305903353629
H           0.36465100789752   -2.31572848413760    0.52990524311177
N          -0.85209982016245    2.74680549977908   -0.95467634490696
H          -0.64515435110436    2.43679910377120   -0.00659920143003
H          -1.39339544473112    3.60012227499230   -0.88698286270070
H           0.03311650361627    2.98026346170958   -1.38715743123965
