    26
        -50.45086393  Gyration_radius:  2.51796107507 Dipole_moment: 2.530
 S           0.23056258224059   -0.35550322878154    1.23908074252426
O          -0.18595683846770   -0.65526497338244   -0.11336356222418
O           1.26171919820231    0.64235871013468    1.32621392097086
O           0.72144133875297   -1.64484250403369    1.91348089050432
O          -0.96248777833519    0.07586973174023    2.06248947707261
H          -1.88404599614377   -0.28910970575700    1.70772849060621
H           1.68953135058453   -1.74705232292055    1.61739357801739
O           2.02026886201845    2.03966479726029   -0.81837040524654
H           1.73081593387624    1.61831530399195    0.01668989174603
H           2.59799345496477    2.76342811570134   -0.57167995397986
O           2.23028534317032   -0.70253736191045   -1.35143316815114
H           1.29461037258171   -0.81313275243277   -1.11894125236473
H           2.35339301457715    0.25598386154303   -1.43340865135302
O          -3.19353878689606   -0.62757865624873    1.19913837960824
H          -3.10811450941278   -0.57695909657424    0.18343609005872
H          -3.76982305015653    0.09477432916117    1.46089809260229
O           3.08957877694440   -1.51688568807251    1.00749717602625
H           2.90313896050942   -1.31837656299860    0.05224469530562
H           3.34524550396627   -0.67793331787258    1.40148962846464
O          -0.83878724679262    1.80181839094951   -1.17192111221410
H          -0.62737793460560    0.93419110982348   -0.79955594988433
H           0.01780385294132    2.21467596859919   -1.32928795987115
N          -2.85002220065215   -0.40872933549705   -1.37803353648452
H          -3.46652695374593   -0.74792196917054   -2.10529241345900
H          -1.97601995346061   -0.92165377474368   -1.42722048216317
H          -2.62368730670863    0.56240092148913   -1.56927262608840
