    26
        -50.45271361  Gyration_radius:  2.57413168931 Dipole_moment: 3.145
 S          -0.95246711575664   -0.22858664462662   -0.07882294806344
O          -0.94181085878115    0.00081391112020   -1.49712554884792
O          -1.44421252064980    0.87786847389700    0.70820983243734
O           0.43803969284471   -0.57052609875066    0.42491133781382
O          -1.81155760097171   -1.47155864757970    0.18224704477794
H          -1.92437468905451   -1.62588939176735    1.18160790320871
H           1.17772715978185   -0.84071817123333   -0.34888569478065
O           0.33488111619450   -1.52773840859109   -3.24577899802733
H          -0.29140595399425   -1.03921927317046   -2.67292633905314
H           0.42958397015241   -1.00551199845518   -4.04492900660481
O           2.36945354294717    1.57323148587584   -1.67653183079499
H           3.04953683484864    2.01440631559897   -1.16518897884704
H           1.51254736929138    1.93771844393623   -1.36225970129649
O           0.00838806815513    2.55565024655443   -0.81517685654216
H          -0.51607402427055    2.49992388288785   -1.61820913297442
H          -0.49962013839654    2.05212504610925   -0.15549533015623
O          -2.11541306028427   -1.69669518202941    2.70502183449683
H          -1.39734381147169   -1.07664574481006    3.02852608712611
H          -2.95125658174140   -1.26576747744112    2.89762195494130
O           2.09026778500661   -1.03425103616227   -1.33020342473245
H           1.55545242193082   -1.36192265156751   -2.09572024833795
H           2.31603312702216   -0.09322557559838   -1.53974611506774
N          -0.28229387469958    0.13292122021821    3.20181845146189
H          -0.63344979507703    0.67358912094133    2.41318938431569
H           0.61651673333769   -0.23816781470463    2.91937330850553
H          -0.13714779633650    0.75817596934023    3.98447301508452
