    26
        -50.46742659  Gyration_radius:  2.40204980857 Dipole_moment: 4.776
 S           0.07854660361218   -0.55452166179911   -1.62763496430204
O          -0.50781947300367    0.42758834055630   -2.50669621718108
O          -0.87561359077308   -1.04429177368264   -0.63289613599054
O           1.25203675281660    0.12627428374512   -0.82519132402095
O           0.76206754805607   -1.66136073351437   -2.29235223137939
H           1.64098585267329   -2.09317627343113   -1.23905715711540
H           0.98551317004631    1.00988303538944   -0.41621337921590
O          -0.33733911718659    0.72748519962584    2.44607615282241
H          -1.18305809030645    0.62085207256968    1.92458234704235
H          -0.60118122957830    0.91446479702119    3.34757028205721
O          -2.41669765539936    0.51312245995700    0.86767630858500
H          -2.46396183803617    1.28440282237644    0.28495482159849
H          -2.02175967518316   -0.18134039857433    0.30226489178473
O          -1.73945883165162    2.28025449702848   -1.16322494218420
H          -1.33109459896045    1.56001158370005   -1.71232454666261
H          -2.01660860783911    2.95489131372394   -1.78497997054999
O           0.47898848135938   -1.75127993696755    1.46081994421420
H           0.45019868826034   -0.91085282114935    1.94907732135750
H          -0.16588425317814   -1.60790297016589    0.72572941455318
O           0.51105885734240    2.27733384538539    0.35245085108939
H           0.28127080100943    1.86972458155356    1.20716393707500
H          -0.33062195882071    2.46105394396489   -0.10765923323129
N           2.27093376150519   -2.28748035384941   -0.35014890445447
H           3.03259773084538   -1.61526805489287   -0.36945045691137
H           2.61608654747329   -3.24209142192816   -0.33483703885961
H           1.63081414491588   -2.07777637664317    0.49430022987957
