    26
        -50.45659827  Gyration_radius:  2.46551706006 Dipole_moment: 6.034
 S           0.62854453247220    1.03588775076339   -0.63204790551109
O          -0.70604233842033    0.60011629206092   -0.15693001520135
O           0.77004449243459    0.71680996029615   -2.04486851568057
O           1.66602606678301    0.46173602770933    0.19384397937605
O           0.67037853023643    2.57860316350693   -0.50960694174529
H           0.90393556718430    2.76015948221524    0.43602280561972
H           1.99611112312672   -1.16659055820517    0.00544955420096
O           1.79754500895836   -2.11987612394149   -0.15774936388782
H           1.25427660064378   -2.03567506264763   -1.52006648594346
H           1.02561179816542   -2.27994726048381    0.42185236878633
O          -1.22593783239269    1.54361788775294    2.23488068502573
H          -1.05845275858939    1.17700275112811    1.33466120554142
H          -2.10186522909693    1.93203550392573    2.20384171220171
O           0.72735800929919   -1.75535125430824   -2.38934606862352
H          -0.31056396011990   -1.85345542118531   -2.12461927091995
H           0.83285398632304   -0.72874936806352   -2.39378497738623
O          -0.46023701662232   -1.68004028984849    1.24705654298619
H          -0.26078040697229   -1.43405743603876    2.15253916904954
H          -0.54003216713436   -0.83188448397063    0.76348311919006
O           0.95564820019460    3.08453520121982    2.03399713400362
H           0.70031735297850    3.98606924323589    2.24141007995169
H           0.21595791067055    2.50321907087495    2.31353762933215
N          -1.65542308017850   -1.69482534845225   -1.55072691536684
H          -1.56081083554126   -0.75029090142076   -1.16977067109705
H          -1.80612448256115   -2.32142559707119   -0.76884389574599
H          -2.45833907178790   -1.72762322906591   -2.16421493815154
