    26
        -50.44784348  Gyration_radius:  2.55708602458 Dipole_moment: 2.795
 S          -0.23105365815972   -1.44920991848346    0.33431547790633
O           0.31483934262874   -1.75186910122039    1.62485359553935
O           0.71233491829767   -1.52196144816756   -0.74956003082760
O          -0.86851086620490   -0.03765457996175    0.35779721649566
O          -1.42837076468894   -2.34556235369992    0.06261860398523
H          -1.96477789806066   -1.93689190804980   -0.72518193371456
H          -0.38080535402489    0.59874228043722    0.95788950236953
O           0.26937171546418    1.52465713831021    2.08103141688409
H          -0.35121570271675    2.24510862937604    2.21136744820748
H           0.17081808434125    0.91389695016655    2.85469731374231
O          -2.61503704681892   -1.33978387312371   -1.90831685011730
H          -2.79393462727474   -2.02372881056483   -2.55814454070195
H          -1.87031228756615   -0.77724498141158   -2.29133365614239
O          -0.48678454444279   -0.17249304722906   -2.75709236848150
H          -0.34795571390413    0.76170630197662   -2.49020893934902
H           0.09177160155270   -0.68845241952245   -2.16942023737360
O          -0.04334607045002   -0.38985775237904    3.86343609980511
H           0.65832228844135   -0.64953994778736    4.46374325144125
H          -0.00042136530810   -1.02047261847314    3.11319545163165
O           0.34787769546081    2.25890194369974   -1.91416574380197
H           1.00219665078487    1.86688617656436   -1.28550657347745
H           0.85870896275003    2.67746183251551   -2.60898567515180
N           2.12208097007045    0.98709333373990   -0.29556801664673
H           1.88642042549529    1.23352883669404    0.65862920503046
H           3.13052532028357    1.00776852229553   -0.38161190772754
H           1.81725793406933    0.02897081424243   -0.44847811950713
