    26
        -50.45840155  Gyration_radius:  2.40113080277 Dipole_moment: 3.930
 S          -1.18953307587227    1.00083131567846   -0.39655545217327
O           0.08133893264609    1.10674597799507    0.31578033531658
O          -2.32258762499266    1.02871303837442    0.47204144397275
O          -1.16331143690971   -0.26778679855592   -1.23984557240970
O          -1.25553705444192    2.11818416757021   -1.42632921844276
H          -0.30672422326378    2.14701868966800   -1.81636643471885
H          -1.02590808252609   -1.16913703307138   -0.63803217027333
O          -0.73587549192754   -2.21025368097347    0.21203156267261
H          -1.27953226741701   -1.96439164651229    1.01499871250047
H           0.20065861684629   -2.02006197337097    0.44720680190689
O           1.60698555875421   -1.04430085158300    0.76811857783789
H           1.15738349895790   -0.20350369610551    0.54927300884674
H           1.75721401032042   -1.00990924355855    1.71675480420824
O           0.05617219594760    0.55702372265973    2.94970850084855
H           0.06290365731994    0.87788696070805    2.02719878407864
H          -0.24833194048995    1.28908264292451    3.48803416370412
O           1.17405690700496    2.02460284547569   -2.10291198821032
H           1.36458821472706    1.05504875449828   -2.28612224445607
H           1.53673487777421    2.19421876751098   -1.22873281722745
O          -2.00372013389908   -1.07261224360069    2.17404154511599
H          -2.40121828663129   -0.35335646431902    1.65504094505879
H          -1.28857176816932   -0.64767036418483    2.68202695844776
N           1.57441774406547   -0.58905364576152   -2.34423615715683
H           0.60744350049050   -0.89031249924861   -2.39496828815326
H           1.96120915003110   -0.95421634355845   -1.48104258347154
H           2.07974452161111   -1.00279041863711   -3.11711322776240
