    26
        -50.46564195  Gyration_radius:  2.42028236354 Dipole_moment: 2.441
 S           0.39575175393921    0.21577752438870    1.21559943815458
O           1.24636453949450   -0.39720177595550    0.18162326922572
O          -0.85222840241608   -0.52635702751625    1.34969717912110
O           0.16974737932379    1.62075947931142    0.92170663954416
O           1.14819081690126    0.08504877307852    2.55934315471921
H           1.95687663869119    0.65151903093420    2.39742958615276
H          -0.65533600149319    1.93829729377196   -0.48855835530814
O          -1.39072919029305   -1.86428148232849   -1.95675667472003
H          -0.99438663033275   -2.41539456196010   -1.23449831620045
H          -2.09860315123586   -1.34995958042931   -1.52675659435931
O           0.33927254079602   -0.07130974022759   -2.13116881765067
H          -0.36954573994961   -0.87032174947646   -2.18403248298923
H           0.81750397539119   -0.21573763021343   -1.22204856371828
O          -1.11544478120010    1.82518385197434   -1.35412295178788
H          -0.23876129519253    0.78659326368994   -1.96392200274883
H          -1.93349243466967    1.34454209205665   -1.14154146721112
O          -0.18711821190165   -2.83590956773641    0.18598061380585
H           0.75140220913298   -2.65912008367476    0.07322878554530
H          -0.50092491898757   -2.11259213518803    0.76334781761884
O          -2.78081702170000   -0.12201823032712   -0.36733470365303
H          -2.10183654879262   -0.25594485299596    0.33948609337303
H          -3.63267085377719   -0.18061818231621    0.06755512569094
N           2.93249901110307    1.69146287182672    1.57388962916517
H           2.12698604608799    2.15949932714756    1.16868629945972
H           3.39296003943405    1.17340438835147    0.83672135752152
H           3.57434022164111    2.38467871381491    1.93644593123304
