    26
        -50.45309850  Gyration_radius:  2.44281805835 Dipole_moment: 3.688
 S           0.47403324147500    1.41772570905565    0.46330860293600
O           0.31524053893268    2.32272727740539   -0.63486443604329
O           1.41299624995025    0.34360094018475    0.22508757188417
O          -0.90373082739242    0.80173635757946    0.81130413174115
O           0.86483908266457    2.14282292096873    1.73980208950812
H           1.09310628048303    1.37281591343087    2.40098455019786
H          -1.53280892252680    0.94000724085668    0.01357585956306
O          -0.76630899964917   -1.35372539865475    2.64650848566421
H          -1.38569351691594   -0.65996102255800    2.40431353619983
H          -0.54854346579423   -1.80246522559800    1.79128848073573
O          -0.91913165940872   -0.75218875589773   -2.62250554431400
H          -1.11709571360289   -0.97795757855165   -3.53304349027692
H          -0.00908461654353   -0.36657132284220   -2.62155393121802
O           1.42172896025446    0.50014858047530   -2.45292138021885
H           1.63813051051126    0.30425402660555   -1.52446665635350
H           1.23657946442099    1.44504184827841   -2.44990617484194
O           1.39794126410226    0.06794393347625    3.03758433941318
H           1.97926294818052   -0.31649799693400    2.37365307694341
H           0.56906943782890   -0.49572681681505    3.02237208210873
O          -2.12747226366364    1.25081201859108   -1.34082880199715
H          -1.81751302933726    0.47742451877771   -1.86859058898643
H          -1.51210429169998    1.97350433547305   -1.52214636749549
N          -0.05868790766962   -2.17051777989302    0.16306235126394
H           0.43629152780126   -3.02973457738517   -0.04117759543927
H           0.60427215554696   -1.40313001836326    0.08879263537376
H          -0.74531644795196   -2.03208913765806   -0.56963282636719
