    26
        -50.44702653  Gyration_radius:  2.63236387878 Dipole_moment: 5.250
 S           0.20138078684760   -1.27325648393418    0.36617828607917
O           1.34704488060727   -0.38825273995211    0.40357556219442
O          -0.08765185408398   -1.81811717789919   -0.92403960556038
O          -1.01953040136071   -0.50976621881877    0.90799735242979
O           0.38247332355735   -2.40324647763005    1.36626326153039
H           0.56511094755597   -2.02076634882324    2.30108341987780
H          -1.34463550460243    0.19963363680218    0.21845751933647
O          -1.86772357819410   -0.83880150272198   -2.63551643348434
H          -2.52581471345499   -1.50128898518694   -2.85063789858552
H          -1.17706965440932   -1.28973824102344   -2.10711852617569
O          -1.67376637634622    1.15995789272255   -0.84718967755927
H          -0.82352076421294    1.55292140327845   -1.11012339911953
H          -1.93355681234024    0.57893368747801   -1.59182865848731
O           0.00584767276241    0.87763999995661   -3.99547798230070
H           0.41545214036651    1.10712462397852   -3.15292558464734
H          -0.68859213382005    0.24470557194948   -3.78163799018688
O           0.93551373628634   -1.37505603870125    3.61249063869281
H           0.81486718649640   -0.39558138256716    3.42241544348227
H           1.87440233770544   -1.51590499400177    3.75488281818833
O           0.97406090226691    1.55248790969421   -1.35717324689390
H           1.22102869355399    0.80733086093511   -0.77132888852290
H           1.76879691117683    2.06725073284655   -1.50863329439269
N           0.69559363320896    1.10118075702231    2.75267658774329
H          -0.28652031731625    1.31784726164661    2.63866059975246
H           1.05174878822985    0.82080645223948    1.84113642320264
H           1.17506013951767    1.94195579072048    3.04781327339558
