    26
        -50.46216187  Gyration_radius:  2.4317561583 Dipole_moment: 4.238
 S           0.01623615407794    0.71619923616880    0.64186209560068
O          -1.21748166044419    0.94887559296874    1.36999798436202
O           0.27269006376855    1.73122227249288   -0.37232728469059
O           0.05095771460688   -0.63274792709941    0.06299362827207
O           1.21555419350318    0.80831095729198    1.62232288095274
H           1.05112889597818    0.16596176429243    2.37167011194445
H          -0.82454086019067   -0.81153043434548   -1.40913213500909
O          -1.53327452640526   -1.55245388408835    2.16675553131599
H          -1.65734715106501   -0.60740864199062    1.94572052378832
H          -1.17302858213325   -1.93498187021560    1.36022369395845
O          -2.49720768591751    1.41408897904518   -0.94801940313611
H          -2.15486751774651    2.27939845610572   -1.18373641561880
H          -2.18266198741931    1.25703868825491   -0.03887235294956
O          -1.20692512421037   -0.52560572186389   -2.26549858653150
H          -0.02274877357155    0.26904304013189   -2.69113688970686
H          -1.88675710675347    0.12971206618994   -1.99682393079079
O           0.61588498106503   -0.85227444831699    3.51351330269361
H          -0.19448375914602   -1.26295684527069    3.11328794426142
H           0.31393637773880   -0.36228012139368    4.28149543881863
O           0.84976058587857    0.85225207925350   -2.63006407249443
H           1.59878977867791    0.17246492295036   -2.28052132076996
H           0.65500357758350    1.37164182139954   -1.75640139307252
N           2.39077333175220   -0.74196601634726   -1.41878754413654
H           3.18296524232182   -0.30596621203070   -0.96522360930052
H           2.67792368940079   -1.64201563030930   -1.78038697302335
H           1.65972012867324   -0.88402211325567   -0.71291124475043
