    26
        -50.45216457  Gyration_radius:  2.53447522513 Dipole_moment: 4.709
 S          -1.25340155735198    0.46721124383729    0.16029857060037
O           0.07265727149600    0.90510331576058    0.54897449755758
O          -1.34011946756015   -0.90320187017432   -0.24061118476713
O          -1.75314458697762    1.37507180872451   -0.97538210461986
O          -2.21745574867860    0.75670655996987    1.30401866894131
H          -1.95116382349880    1.70826258419971    1.64965663110980
H          -1.51653037244080    0.90273970375326   -1.86780990239844
O           0.31543061710068   -2.91902229755064    0.62814414924909
H          -0.40935553401083   -2.36288055022768    0.30399202136884
H           0.69410878432957   -2.42449442771720    1.37690320516271
O           1.35967137175908    0.20466041624236   -1.78333464178951
H           1.79030177315957   -0.64461967010715   -1.54752189663429
H           1.06224847570844    0.58255970359629   -0.94375114381798
O          -0.98245305466621   -0.03052739047769   -2.90604153529482
H          -1.26345840042028   -0.87944238908480   -2.54804451644771
H          -0.01648752802214    0.05233822194104   -2.67119806864038
O           2.33930736578801   -2.15050825782535   -0.90423435623199
H           2.62673103460716   -2.83982451616842   -1.50341285871789
H           1.58859291916669   -2.53058666552717   -0.37963704833207
O           1.67696264681273   -0.89911830709356    1.87501579502509
H           2.39520416070570   -1.04836994885959    1.25176592992981
H           1.13127401599506   -0.19759954866316    1.48662640100115
N          -1.24896673723641    3.02452096299255    1.91101926543131
H          -0.34916447814294    2.74025787074266    1.53633104310464
H          -1.14012719875404    3.31590725266945    2.87334173537902
H          -1.61066195888988    3.79485621513731    1.36489135382112
