    26
        -50.45373032  Gyration_radius:  2.46753585521 Dipole_moment: 3.391
 S           1.11806634635362    0.90161387280270    0.81874082229291
O           1.66665924795508    0.17423643273835    1.91667429125421
O          -0.33134595241481    0.89077390642423    0.75666463973431
O           1.66542298255586    0.34875816273678   -0.51666119931975
O           1.61894011533069    2.33637959739650    0.80244643606257
H           1.02118881449356    2.80115519213892    0.11149378815695
H           1.39642936321058   -0.61300164436101   -0.66886804763636
O          -1.22452887803272   -0.40674070549730   -1.44572611410725
H          -0.66617733128185   -1.19382079173732   -1.43818508085595
H          -1.03359320340097    0.04845661192051   -0.60684033327931
O          -0.20211876858640    1.56519424832996   -2.95052372054876
H          -0.81419119296285    1.78630560085018   -3.65438633307023
H          -0.57215448869854    0.77430187428373   -2.49529774431435
O           0.93323134356580   -2.09505784914600   -0.76164153976705
H           0.83048095480588   -2.31501897727679    0.22725987165354
H           1.64186797396643   -2.65171481475949   -1.09025492265902
O          -0.12487841996396    3.15065509533945   -0.82300997629874
H          -0.80007405968805    2.66801465414594   -0.33148379301127
H          -0.02776374736178    2.66256717090962   -1.67911406011778
O           0.72920326715461   -2.38351417669429    1.76589503589937
H          -0.22119808372033   -2.18572356704268    1.95314248413219
H           1.20301324722263   -1.57847589496058    2.03449376480862
N          -1.75224608103393   -1.35858508337666    2.02753091781695
H          -2.48097067707529   -1.63335369993274    1.38062351528797
H          -1.39871939977480   -0.45303865757071    1.72758642640638
H          -2.17454337295969   -1.24036656743070    2.93944085161306
