    26
        -50.45047855  Gyration_radius:  2.42076934426 Dipole_moment: 2.601
 S          -0.61023451115931   -0.01035276949024    1.09285859901914
O          -0.42066184958976    1.37772833040521    1.38768069366548
O          -0.38513892384709   -0.94951322514513    2.14526555058696
O           0.27468793147288   -0.41935468298366   -0.09434363054797
O          -2.06293098674802   -0.21924139627639    0.58156802920796
H          -2.12107904342133    0.19693510582300   -0.32587894475003
H           0.53300141164638    0.37450253030941   -0.73712430370564
O           0.85886639977537    1.51834565517581   -1.54596151513000
H          -0.00002739962250    1.90853265278346   -1.73594216911863
H           1.30329329524628    2.08110407289589   -0.83761482272360
O          -0.98747250141829   -1.83520912451944   -2.15633687402120
H          -1.08690782021635   -2.25528663914665   -1.27490744024163
H          -0.03936439218073   -1.76009282364043   -2.28616582194385
O          -1.93763068908596    0.59151384817120   -1.85623191463166
H          -2.77898353222254    0.64256224680403   -2.31498795522883
H          -1.55360593805872   -0.30280577193715   -2.08329639249122
O           1.80705242819536    2.66975903856955    0.56654144240526
H           2.34377283082376    1.94825617045162    0.95378255931859
H           0.95475171104437    2.56718644170623    1.01827063225163
O          -1.16978477171151   -2.88724136517752    0.36961312442241
H          -0.77482599294645   -2.30357232633082    1.03746420706360
H          -2.08016844310426   -3.01631769690836    0.64494916373769
N           2.50873911728803    0.27965214272289    1.75998493996178
H           3.15999879781404    0.12576576019027    2.52100990338802
H           2.68990759065139   -0.42549774516510    1.05549531284927
H           1.57474527133691    0.10264159070509    2.11430762666939
