    26
        -50.45375293  Gyration_radius:  2.5468383354 Dipole_moment: 6.581
 S           0.28877034510282   -1.00397802891551   -0.51846665913489
O           1.30559999995928   -0.12612369515017    0.03546514262327
O          -0.16657143543737   -0.61445047681466   -1.81657555277077
O          -0.88065922569349   -1.06715593890509    0.46637139724437
O           0.81116131415508   -2.43172227072388   -0.56957006923226
H           1.10986695100757   -2.73884437864023    0.35958982715034
H          -1.38212463634573   -0.13221832730455    0.44014164207857
O           1.63811557372673   -3.07483189840713    1.74176191068324
H           2.59727174272275   -3.07509710366644    1.70327523617773
H           1.36875483415452   -2.26902911353065    2.27592735372017
O          -2.63670610758328    0.90488548239331   -2.21070527025889
H          -1.93947411689445    1.46546354506845   -2.61518140446174
H          -2.32746918377064    0.00528811205426   -2.35609938301486
O          -0.24627135535738    1.93698618497846   -2.89808775490680
H          -0.00700627148163    1.00503592246693   -2.78810548050444
H           0.03760270434907    2.36504590070944   -2.07884891089122
O          -1.92271410032175    1.17878123759341    0.28683376925217
H          -2.34942625249855    1.13219586653471   -0.61670579070231
H          -1.16847520095832    1.78596009498731    0.18436837697950
O           0.50191143874444    2.36651112555694   -0.21478011681741
H           0.90410297608991    1.47068373590811   -0.15815730092794
H           1.12505562457361    2.97886679870344    0.17979807382209
N           0.93397396435882   -0.76578593935758    2.79563343507882
H          -0.07333208667398   -0.76683501496638    2.89664393696259
H           1.14755114537970   -0.29760637154681    1.91712629480763
H           1.33049135851455   -0.23202542900056    3.55834728694076
