    26
        -50.45185518  Gyration_radius:  2.46158299903 Dipole_moment: 3.771
 S          -0.40664116473992    0.86434575703419    1.25654896400146
O           0.05202680073276    2.20512435601007    1.34702975528826
O           0.59772468426918   -0.12113443184752    0.90963055816386
O          -1.56883526721242    0.76901759284052    0.26748352966384
O          -1.03673796955496    0.45254709259476    2.60722977591795
H          -1.47847508313694   -0.42747070271495    2.45998558330277
H          -1.58227516448849   -0.09414707220070   -0.32970007884285
O           0.11582859233626   -2.63974100674568    0.47981291014034
H           0.88806070559147   -3.20636124206295    0.50366049029405
H           0.42829367817123   -1.72010893957664    0.65629888668488
O          -1.57205756747195   -1.26306511497495   -1.18593286813249
H          -1.07390869551689   -0.84601021804566   -1.94093304443621
H          -0.96362474098758   -1.91423703168980   -0.79731294051562
O          -0.15792682311829    0.08624030736772   -2.90912902339627
H          -0.62048467398127    0.51397538600036   -3.63157885851930
H           0.17711524598484    0.82034698252850   -2.33754089399934
O          -2.09251147050713   -1.80276966964348    1.84722050211208
H          -2.69755950220258   -1.62662229990549    1.12061664880705
H          -1.36110944976636   -2.32595055107273    1.47322442679906
O           0.65461699861656    2.10537882557766   -1.38712597396444
H           1.58863616407293    1.95724360467751   -1.13420148912757
H           0.22040309097396    2.33079319592588   -0.55644654900431
N           2.89798941521010    1.54005057745952    0.06304557833846
H           2.29090661672225    0.82367247102847    0.45150798356573
H           2.85254604828036    2.32909845059311    0.69687275740052
H           3.84799953171506    1.18978368084772    0.06973336947194
