    26
        -50.44759137  Gyration_radius:  2.48432990589 Dipole_moment: 3.150
 S           1.13152507424812   -1.38241539844873   -0.59836228428319
O           1.33413505762010   -2.21036082444236   -1.74616347469265
O           0.15017781579419   -1.87563770459699    0.33234061339552
O           0.73080731095104    0.05377794028060   -1.03986111349514
O           2.45886099360558   -1.10654572296613    0.10202994126998
H           2.31566238188078   -0.30831994596643    0.72045190095800
H          -0.19191403999289    0.06755670488985   -1.41624495687177
O          -1.66354919537175    1.74458690369547    0.19428462433973
H          -1.48886716819224    1.14521718883371    0.96243335407281
H          -1.87192147597000    1.17026942326512   -0.54920698814230
O           2.14712628204634    0.96144393000071    1.55390337951364
H           1.59254433247472    1.61111578516128    1.02844899675633
H           3.02718124800876    1.34304016846555    1.59458948965403
O          -1.65938311047880   -0.15074488553595   -2.03437460181203
H          -1.69454964158315   -1.14495406870064   -1.98600040178797
H          -1.70314337878610    0.08186171724254   -2.96439594500206
O           0.75080025927793    2.79690280462425    0.32151281268937
H          -0.14335185899632    2.40360230154829    0.14567412576937
H           0.58442358918321    3.56311484019883    0.87416221958820
O          -1.31368231601091   -2.73512203314005   -1.80083399179052
H          -1.24995925256783   -2.79805362995999   -0.83886647777525
H          -0.38797562184457   -2.79262901634155   -2.09167826830623
N          -0.85092731764886    0.08612103993273    2.16296401504483
H          -0.57187248699231   -0.70442361727433    1.58381358565254
H          -1.43079076991076   -0.27041923237062    2.91214869948954
H          -0.00135673075016    0.45101534160843    2.57723073577506
