    26
        -50.45085027  Gyration_radius:  2.45719301706 Dipole_moment: 3.726
 S           1.39825690855524   -0.87974396093240   -0.43353797065462
O           2.20007914171448   -1.25977609009622    0.68053461957387
O           1.06973655564901    0.53439375480779   -0.49043095250187
O           0.07449752659383   -1.67637694997089   -0.44530653639842
O           2.04041349944072   -1.30197432538105   -1.74581138414353
H           1.51226304545854   -0.79991767226918   -2.46332513950067
H          -0.51510771886070   -1.46785113496431    0.35454864533446
O           0.63794678854400    0.19773996958157   -3.21499408492052
H           0.78026998231985    0.94197178711871   -2.61919863430580
H          -0.31861636111054   -0.03666966651066   -3.12126309731451
O          -1.95065271853067   -0.08523280456581   -2.67240782316144
H          -1.94008763712863    0.30068100623466   -1.76746815742413
H          -2.57520386189197    0.43126656246316   -3.18414163468175
O          -1.32854671089238   -1.09373930047503    1.60706384939803
H          -0.56706555485825   -0.72011873802372    2.21021763989201
H          -1.64973102903240   -1.89510474573740    2.02377491514352
O           0.62927963342597    2.36666223233208    1.55073661021440
H           1.01225625321902    1.85708289132420    0.82144217465463
H          -0.25979711836265    2.59611068903765    1.26687062793022
O          -1.57618304474253    1.00268136067154   -0.24444848421635
H          -1.82239509992900    0.38094691576333    0.45212727004255
H          -0.60953734843517    0.91221962834521   -0.33505237273502
N           0.69598021511981   -0.18438725180712    2.88241362426949
H           0.90452198151597   -0.34499630803042    3.85922719036161
H           0.71997189642494    0.82144016686230    2.70963948611023
H           1.43745075632938   -0.59730802533784    2.31878962919167
