    26
        -50.46546416  Gyration_radius:  2.43819689938 Dipole_moment: 6.724
 S          -0.92536370015362   -0.98093300445944   -1.07259791145469
O          -1.35850159467571   -0.99603649808730    0.32267725813392
O          -0.01195797678561   -2.07005781026151   -1.36247166573171
O          -0.31658810289357    0.31719282697214   -1.40874861262139
O          -2.17236798419353   -1.13144022058872   -1.97107171688935
H          -2.63051309146315   -0.26033611731108   -1.82620910732717
H           1.02421051274595    0.59278295325387   -0.99082803728556
O           2.25231113376553   -1.92463776016383   -0.16058210171466
H           1.37380460262220   -2.03564964169764   -0.62963533072236
H           2.77156603363529   -2.69276303902248   -0.40346602889292
O           0.68415079131873   -0.99916460028933    1.99725071453315
H           1.34413053010557   -1.47533378217914    1.47546373658699
H          -0.15196115965381   -1.09276618960578    1.49047799421114
O          -3.25303034034090    1.14054194547319   -1.30462909658295
H          -2.62986058534363    1.47212200635968   -0.61983014227130
H          -4.07373155764042    0.96205437891936   -0.83894710973368
O          -1.73787837345295    1.56406320337143    0.87100923000127
H          -1.64116634804544    0.59243560088718    0.79959211039022
H          -0.84402052890035    1.89339871907279    1.01057938449221
O           1.11818530834562    1.56896591424044    1.80487257221724
H           0.89681058191050    0.61108161222689    1.98291806772360
H           1.35040221864617    1.95216879014973    2.65127090285395
N           2.03354555753774    0.73398268376753   -0.56490225629651
H           1.88105782155064    1.21531298447332    0.34533397901498
H           2.62440317641587    1.27002053244446   -1.18924702304146
H           2.39236307487277   -0.22700546795491   -0.40827979955999
