    26
        -50.45058618  Gyration_radius:  2.4332582351 Dipole_moment: 1.148
 S          -0.55067822444482    1.38214381159971    1.21438842502747
O          -1.08712020141850    1.72452986666466   -0.08783326458286
O           0.40789745407292    2.31360288681854    1.71357990385053
O           0.11159894125512   -0.02223348893404    1.10831331510783
O          -1.67985986155556    1.14352669148685    2.19485793161252
H          -2.13672723490281    0.23059719290701    1.94761106445542
H           1.06308364936603    0.13830812177577    0.83671703505097
O           0.20266792220765   -1.19497002469857   -1.98784916188890
H           0.78223227030654   -1.63868455162726   -1.33380336099004
H           0.55767495467865   -0.30208354528943   -2.08552690041349
O           0.94878265153219    1.57381169288238   -1.77085221230601
H           0.14737625089978    1.70036664773543   -1.21782308727611
H           0.90618728612612    2.23009265454037   -2.46857357947019
O          -2.19812686855804   -0.57040018987952   -0.99424978238689
H          -1.39291893211330   -0.97249560913884   -1.39782901196965
H          -1.94735856029769    0.35367484076228   -0.83392567592721
O           2.39939525388406    0.91958095980373    0.42745150299093
H           2.15385399332684    1.17125036680842   -0.48204213461091
H           2.16640843151244    1.67621445715008    0.98486276133462
O          -2.74511376860582   -0.99894125973085    1.47076567115865
H          -2.51957817923172   -0.97480566629896    0.48284617748176
H          -3.70134226727915   -0.92878428235954    1.52800996546277
N           1.89175380955639   -2.18420179161149   -0.03833021242600
H           2.36212878290364   -3.07676420253224   -0.11576519031596
H           1.26872796080107   -2.22059258308760    0.75914399274452
H           2.58905447604776   -1.47274299576706    0.14585581828864
