    26
        -50.47285706  Gyration_radius:  2.42608437279 Dipole_moment: 2.552
 S           0.21943460077346    0.14236893859269    1.68229556353271
O           1.01622442704950    1.33748547631217    1.80861574074620
O           0.91955785792956   -0.88691000409221    0.90479082748463
O          -1.10016186495081    0.40236545363934    1.11233856903881
O          -0.00476917796444   -0.44772078215437    3.11181783285810
H          -0.65723082560296   -1.15175933761901    2.95524903913394
H          -1.25764120965993    1.24036219706055   -0.39043825091928
O          -0.81021712214997   -2.27528497497637   -0.61349490948016
H          -1.54760384824087   -2.49475480834680   -0.03810350892304
H          -0.14720380681104   -1.86474043604129   -0.02687689094346
O          -1.12113661644892    1.65449158620242   -1.26321410791848
H          -0.83240133564527    0.29895677436764   -2.27387762870930
H          -0.33722784795298    2.20798409292973   -1.15645331443384
O          -0.37625987722014   -0.50755863097736   -2.61350235447260
H           0.96589365861423   -0.24035504168912   -2.03197869424635
H          -0.68622726604775   -1.24182227260045   -2.04471904361753
O          -2.08245795634471   -1.79510340677818    2.02807465414465
H          -2.93224019761549   -1.68513728992054    2.45934970656078
H          -1.89595526039864   -0.95130350185017    1.55450401731564
O           1.47277166156688    2.53113326901922   -0.45603503407897
H           1.89984420863700    3.37251394991303   -0.28722811861422
H           1.29033918358317    2.13548775286003    0.43550535674248
N           1.83010502854938   -0.00279961944268   -1.39307949718571
H           2.69626140770178   -0.38505049990162   -1.75467401156475
H           1.59329401889233   -0.41390054039293   -0.44842170562495
H           1.88500813981941    1.02105167585408   -1.26044423682419
