    26
        -50.44772307  Gyration_radius:  2.62739584781 Dipole_moment: 4.658
 S          -0.29517100122305   -1.32702967192949    0.28239912936273
O           0.06471877491491   -0.07156938662546    0.90510309984606
O           0.78086042162359   -1.98950644409806   -0.38033321049053
O          -1.46719453039139   -1.06725368249253   -0.68642362102817
O          -0.91753312052479   -2.25781669485196    1.31687294579650
H          -1.69966114663275   -1.77018080168145    1.75671769454716
H          -1.20467316144038   -0.31823314434341   -1.33380074036014
O           1.57573836284518   -0.42250509364757   -2.44439051050477
H           2.35058830172216    0.07319333581589   -2.09753400592234
H           1.41134188596571   -1.12794230291710   -1.79489599578863
O           2.58985333938811    0.74753025890430    1.28055880808246
H           1.69766568644670    0.37122411577595    1.15189385193474
H           2.45695144254337    1.63533559944410    1.61830580024100
O          -0.70010380671525    0.73955390994829   -2.27644248658101
H          -1.10900326951376    0.63342086616983   -3.13869290821683
H           0.24683133765442    0.39810629211764   -2.38450278541226
O          -2.75971105702126   -0.89651243700930    2.42036285805395
H          -2.75468348348946   -0.04570827447210    1.88773326848019
H          -2.44040189908001   -0.67175544888498    3.29723273441065
O           3.67134298850484    0.69930348524120   -1.18884007895694
H           4.37774044098925    0.05151038401465   -1.16693467091019
H           3.31534530046158    0.73928391801334   -0.27500135575871
N          -2.41957980138395    1.30176489008043    0.99004424914965
H          -2.50427812873509    2.26106694659996    1.30154394270511
H          -2.83682988090752    1.23376303241345    0.07065155758614
H          -1.43015398600488    1.08095634842298    0.88837243969642
