    26
        -50.46652605  Gyration_radius:  2.47683318065 Dipole_moment: 5.846
 S          -0.88840773408493    0.41713542938454   -0.51315670876578
O          -0.53795291588646    1.32199405566797    0.57437118076790
O          -1.40086215797935   -0.85895027588227    0.00670868223324
O           0.23142523362350    0.18672511057759   -1.41459892310068
O          -2.06762851819809    1.02272928121415   -1.30439133606996
H          -1.78246322594448    1.92050868238789   -1.63350725354440
H           1.61477909235380   -0.64779009740282   -0.92558766440904
O           1.32193956448548   -0.11521279967999    1.86383934730555
H           0.70509476689167    0.53670486207777    1.47931345613623
H           0.75180225713490   -0.76530522196656    2.30197392873996
O           2.18244060804268   -1.22452298919133   -0.36454370533896
H           1.20018047534572   -2.28997762094073   -0.18123033603171
H           2.14048871308728   -0.78770352988047    0.52172564769923
O          -1.24252209068481    3.38195838599419   -1.98679204985013
H          -1.63243731584493    4.03064541521598   -1.39689244857470
H          -0.29238475449081    3.29349483887591   -1.71409422381451
O          -0.82149972549929   -1.80840425408630    2.42798513324144
H          -1.38323777093457   -1.53276137904264    3.15347777661995
H          -1.17689403608288   -1.37176661022143    1.62442163280736
O           1.08950391655147    2.73147940897517   -0.97114441932877
H           0.61904536149048    2.38170563699510   -0.19055079047785
H           1.26883743114277    1.93998029291012   -1.49438680768111
N           0.25868030434579   -2.85759813703310   -0.01408963774683
H           0.18635653972727   -3.14498360901941    0.96179511608416
H           0.14914342104658   -3.64343261406164   -0.64502980870406
H          -0.49342743961186   -2.11665226188105   -0.16561579824671
