    26
        -50.44759138  Gyration_radius:  2.48427093822 Dipole_moment: 3.152
 S           0.67315732979857    0.51134056547518   -1.68350373399213
O          -0.23155762476173   -0.60236217503012   -1.80024819964551
O           1.86556410130964    0.39517358857420   -2.46377907504452
O           1.03370961586046    0.71315143184655   -0.18436041772180
O          -0.03785293706011    1.82694504814945   -1.98646128308830
H          -0.69991441619084    1.99531354405776   -1.22896874669042
H           1.40935664126664   -0.12218034563862    0.20852340585867
O          -1.60290406101303    2.31968184167930   -0.04023534454896
H          -1.11404816647436    2.07595945589153    0.80082799221442
H          -1.66551969433533    3.27774412985724   -0.03728538236556
O           1.94278243076145   -2.24488884928312   -1.90607366731385
H           2.23592489843861   -1.40905497979666   -2.30648446389304
H           0.98590035103392   -2.23247853825837   -2.03824359717705
O          -0.28728371005615   -0.84714888566357    2.24758721777975
H          -1.02134084304844   -0.93854038064836    1.58984170915650
H           0.48620163455764   -1.24937579346115    1.84020623774410
O           2.03829749819903   -1.54446852447573    0.61451342944132
H           2.95488549309100   -1.47392223147979    0.88991523413560
H           2.04225221164232   -1.96787492612484   -0.28700760185732
O          -0.47354085721100    1.78326710690441    2.25625804689910
H          -0.27527628863907    0.81077618089623    2.25582841186789
H          -1.06798323563348    1.91836586078789    2.99694072846882
N          -2.16206436452289   -0.79480574647467    0.30619507368252
H          -2.59826103426657    0.11950574728062    0.28697842269856
H          -2.88907049170451   -1.48585547569702    0.16997834012397
H          -1.54141447117965   -0.83426765957796   -0.50094273683161
