    26
        -50.47257744  Gyration_radius:  2.40483879381 Dipole_moment: 4.380
 S          -1.38033519193158   -0.21948799977773    0.23175910947883
O          -1.46688794869446   -1.18018305109136    1.31229883978884
O          -0.63822034221348   -0.78841065307791   -0.90970139318202
O          -0.78635935543994    1.04006641891449    0.65222674043458
O          -2.82005767886925    0.07295107132193   -0.27459655111290
H          -2.67268354674936    0.77739865464842   -0.94415211721988
H           0.73759057987191    1.43516977174634    0.15973712828234
O           0.72472300228903   -2.61695303260823    0.35564601515400
H           0.05421569987114   -2.82735316029934    1.01498644309259
H           0.23733630806144   -2.03167031750158   -0.26945242311211
O          -2.17044800997767    1.76249459452812   -2.20956010718974
H          -2.60510863992956    1.51427067872032   -3.02859632548186
H          -1.21223390457244    1.64039063176393   -2.35060971922272
O           0.39896456435800    0.83945274607709   -2.60352827681205
H           0.62928158588530    0.34216111894065   -3.38997602140381
H           0.02796911625831    0.17797212366538   -1.95814316164737
O           0.09452255267882    0.03651839351426    3.03127295574630
H          -0.56636889304004   -0.52076889348721    2.55824895648494
H          -0.12061724149121    0.92402172534047    2.72054432318414
O           1.66783693228632    1.40689057865606   -0.16789684631035
H           1.56557088893324    1.33101657104820   -1.12667027321042
H           2.08138498221743    0.15966660879282    0.73381300589659
N           2.09570366367867   -0.63107349046867    1.44483984643216
H           3.02612222335332   -0.78743523610732    1.81559669510356
H           1.69375099502671   -1.50319099368749    0.99416866704366
H           1.40434765792225   -0.35391486956563    2.20774447982780
