    26
        -50.46633713  Gyration_radius:  2.38609091052 Dipole_moment: 5.211
 S           1.04290156204313    0.46998629863311   -1.17755966487721
O           1.55250969785414    0.13553435691471    0.15625337713000
O           0.92427930207967    1.88769616883507   -1.38002405293512
O          -0.40961008473605   -0.16300447210263   -1.26189099965321
O           1.75941551297833   -0.26636524072080   -2.21095091911878
H           1.20404501227562   -1.60814313699631   -2.05395948088516
H          -1.07988131192114    0.41009470935737   -0.80733149772298
O          -2.23223971444480    1.28777891698902   -0.08081557813267
H          -2.83953581730597    1.67528287038558   -0.71273538372707
H          -1.64457524523091    2.04177876213432    0.23995207898981
O          -0.46483459002712    3.03905333489595    0.58065159702646
H           0.12788927449341    2.79705513249023   -0.16241755762369
H          -0.08378482934988    2.61818329149205    1.36824812899168
O           0.55359052486489    1.16237773554777    2.32711892371464
H           0.98697404138781    0.80339216171417    1.51279129597597
H           1.22073361652180    1.14739132578851    3.01441192735484
O           0.55805886458907   -2.20633806994233    0.72930610019940
H          -0.29049841768670   -1.88087568767139    1.10595831555565
H           1.08782461034661   -1.38122564321640    0.63789224412093
O          -1.43601009717450   -0.73015923731118    1.76749556276965
H          -0.83373146372133   -0.08954110948291    2.18054849932886
H          -1.96974198773346   -0.20696600315033    1.15786111376389
N           0.69111785862522   -2.54641168253758   -1.81815552920673
H           1.23472743648101   -3.35241981830919   -2.11010353706330
H          -0.21688081739397   -2.52883330360793   -2.27248156273825
H           0.55725707218137   -2.51532168017009   -0.73006340122640
