    26
        -50.46075944  Gyration_radius:  2.41218080931 Dipole_moment: 2.067
 S           0.58234510507494   -1.09535346899091   -0.66466258194249
O          -0.50881079216171   -1.36726376203449    0.28334866953211
O           1.85226046318834   -0.98418168102527    0.01221099852369
O           0.25546476639814    0.10737899114724   -1.44216581483454
O           0.65469036901708   -2.28683706217025   -1.64615429172754
H          -0.24705301799890   -2.25267568214369   -2.07545780090534
H          -0.31576639840611    1.29676132307714   -0.77733854445075
O           0.55952425581981   -0.37628564024784    2.48673630597253
H           0.12775497403758   -0.82287260027472    1.72693390882725
H           1.45234359603242   -0.73018079927367    2.48639874856100
O          -0.79120948410798    1.99155780887926   -0.17209740320745
H          -1.56899234430394    1.46761395922755    0.21547925316531
H          -0.08185152824866    2.15183368302001    0.66460826653283
O           0.83090069103242    2.12989181769127    1.68466171115441
H           1.68690027724747    2.04631208218096    1.19943114956297
H           0.69960643785013    1.24866935765868    2.12140796685547
O          -2.44327222392183    0.28580781349452    0.80411748103181
H          -1.79989235363239   -0.43318120726727    0.57897410659171
H          -2.50686290399617    0.28571191062089    1.76198432142565
O           2.90667021035863    1.42137309064206    0.23004047456959
H           2.54698167741346    0.52479252047470    0.04434444948119
H           3.83545732712268    1.30102803560894    0.43238530078360
N          -1.73251450960868   -1.64839533585903   -2.47353314870026
H          -2.22877124792453   -1.78327026251424   -3.34485390936425
H          -1.38713741253916   -0.69484221777233   -2.42988116482895
H          -2.37876592373207   -1.78339263416511   -1.70691844261509
