    26
        -50.45278995  Gyration_radius:  2.46767996418 Dipole_moment: 3.458
 S          -1.27962605850808    0.57858902878155    0.78339355792650
O          -0.03767931738968    1.07040361256387    0.20134271163392
O          -1.14744835902186    0.09492177465387    2.12048244642085
O          -1.88505200414048   -0.42171731208023   -0.13122412639291
O          -2.28116064974615    1.79008080397625    0.79430288443604
H          -2.32192813277428    2.05591124970345   -0.13240448086359
H          -0.97287395558065   -1.23938802947030   -0.96827098022900
O           1.49122493460698   -2.48546713678758   -0.06104981632800
H           1.37295171449656   -2.00953057708520    0.83437881755592
H           1.39807173439071   -3.42170755131377    0.12465619559445
O          -2.36758053592324    1.37253477292019   -1.94216970334585
H          -3.23832071433983    1.33256659135925   -2.34214010073836
H          -2.28712078463396    0.58403868532411   -1.35785986075770
O          -0.25516061533427   -1.61020328924680   -1.61148634384876
H           0.10191789672104   -0.73404606632937   -2.05364411360280
H           0.51488787829738   -1.99646537372386   -0.99015904233011
O           1.14235499159951   -1.32825417556979    2.18396578980922
H           1.76517327622699   -0.56458534183292    2.16081396340358
H           0.26315578878117   -0.91349711916621    2.26299764377128
O           0.34784175938640    0.72051921018224   -2.34600431941218
H          -0.47585305619739    1.10650035657054   -2.67374746851415
H           0.36836658490810    0.98181659706608   -1.39274452532247
N           2.43554917071520    1.00677601838575    1.73931251145747
H           2.48120128059431    1.70222796585654    2.47292141554491
H           1.61448363391376    1.20980170942776    1.17167289279974
H           3.25262354899794    1.11817360585909    1.15266405132585
