    26
        -50.46036267  Gyration_radius:  2.4725432286 Dipole_moment: 2.222
 S           0.21070852601497   -1.44779620339920    0.03153903680919
O           1.31555278611274   -0.75545383964113   -0.60267460369648
O          -1.07460358957829   -0.88867271069376   -0.34105081501647
O           0.36231348138277   -1.46274087568302    1.50099372672698
O           0.26932768349748   -2.92793062400063   -0.44871611341450
H          -0.33639835912174   -3.39235208292784    0.16490536102970
H           0.40419033633268   -0.07456505129828    2.08016055529516
O          -1.54847791462444    1.44327591092376    0.74562755824609
H          -1.14782803115009    2.05041746222295    0.09263355946368
H          -1.54140560175235    0.55340464477867    0.31348576924969
O          -1.07501665626645   -3.66173254573149    1.69607587474970
H          -0.65734967373682   -4.31093541506126    2.26695048265461
H          -0.66251342655503   -2.80080025539072    1.90318909133988
O          -0.02757341943221    2.75032324261568   -1.09647391445713
H          -0.12700848171503    3.56109586436819   -1.59623111040890
H          -0.06912755197412    1.98660441428342   -1.75545101646391
O           0.37914006544300    0.94120183198361    2.23870219702260
H          -0.51897416030657    1.23566537823551    1.73723835838417
H           1.13492066743214    1.30690445607576    1.59803307254341
O           1.94643315299047    1.61007061332531    0.40539686721475
H           1.91685481780049    0.72633240090525   -0.02416957970605
H           1.37901200239947    2.18145129465179   -0.14761771360699
N          -0.12843948421843    0.61681627460144   -2.62072908642514
H           0.11426775277185    0.51348775617888   -3.59820940947440
H          -1.03806796865136    0.19391986236357   -2.47278936844516
H           0.52006304690866    0.05200818631326   -2.07081877961549
