    26
        -50.45219191  Gyration_radius:  2.56898688057 Dipole_moment: 1.853
 S           0.04225226910634    1.00882349698059   -0.91223526081463
O          -1.27367232140381    1.09679774636421   -0.29227347637827
O           0.28873192963332   -0.30603144971537   -1.47817389147577
O           1.08598843702101    1.37177009370731    0.06483205534720
O           0.12330917363491    2.03213366236031   -2.06950900337387
H          -0.07930406434857    2.88616211318018   -1.59230792921266
H           1.08329773626749    0.69538045292875    1.28314081577550
O          -0.05315859232693   -2.43107332263143    0.02092431416112
H           0.15714924348702   -1.62894826879161   -0.51570300233653
H          -0.43013065362528   -3.03230798769615   -0.63209433562759
O           2.00890169238727   -2.21399160589513    1.69785935761601
H           1.35526361099822   -2.45384051702845    1.00551835245825
H           1.92525304168775   -2.86486586532378    2.39720864188493
O          -0.92371458227811   -2.48771603913118   -2.67068437944307
H          -0.82073691773978   -2.54484353891554   -3.62125943952507
H          -0.56121664929645   -1.62441599369581   -2.41258908914175
O           0.95561088331052    0.09743222606459    2.16893218433073
H          -0.05798636175869   -0.21452829254813    2.08341014035864
H           1.50277494655935   -0.74446970262105    2.03110960640160
O          -1.35735468172768   -0.67083728772929    1.61889664801447
H          -1.52264293247555    0.01476003238139    0.92416596118550
H          -1.13907756471341   -1.48252568861716    1.12061838435324
N          -0.50775241320529    3.82768532801438   -0.30475073679847
H          -1.15310755561547    3.11748358781929    0.02854629542533
H          -0.94958792228628    4.73626996081183   -0.24736336023338
H           0.30091025869966    3.81569687971637    0.30378111706293
