    26
        -50.45567338  Gyration_radius:  2.52472148198 Dipole_moment: 8.015
 S          -0.94026601819078   -0.24285203838814    1.58966190731078
O          -2.01433427272238    0.53140686593209    2.12182372906902
O           0.31936204065483    0.50550223261321    1.43937816684849
O          -1.24964423726451   -0.90969238356321    0.31541513606627
O          -0.62989534773258   -1.39660633036296    2.61701567627706
H          -0.02379621960875   -1.98822055305940    2.15327662760318
H          -1.15162404927316   -0.15031329922964   -1.21307321228169
O           1.40799726864406    0.64479710915775   -0.81024058819493
H           1.02342983206853    0.62659214368025    0.14707391067250
H           1.91776407378261   -0.26909456037126   -0.92232344794799
O          -1.71596273684586    2.78619391183103   -1.39091799838293
H          -1.54621009231394    2.85548642763445   -0.42027256656540
H          -1.38442392460278    3.59707597102786   -1.77868647364103
O          -0.77858936916315    0.38538174417960   -1.94647597603999
H           0.51740307318749    0.57414454517006   -1.41230923553096
H          -1.21378153787081    1.27023853657787   -1.86944925734141
O           0.40628756595282   -2.84817951359273    0.51229078403176
H          -0.05833938916216   -3.68269771345377    0.42352741675159
H          -0.25819130972502   -2.14126696970099    0.29474960410296
O          -1.08517146551631    2.84129315656997    1.19481315839728
H          -0.24766025558686    2.37615234253312    1.32013037055497
H          -1.72166948492505    2.24339645088983    1.62275056855391
N           2.52687362133730   -1.64942124071726   -1.00334131727114
H           2.57177512641631   -2.02293459255804   -1.94252736171634
H           1.88262859428009   -2.22274996189691   -0.45620267957915
H           3.44603851424143   -1.71363228088518   -0.58608695166804
