    26
        -50.47380351  Gyration_radius:  2.47826526895 Dipole_moment: 4.020
 S          -0.87844164033023   -0.96077723957387   -0.70002206627686
O           0.14934610055121   -0.53562810220202   -1.62614065772319
O          -1.45511723875628    0.15721432899251    0.03558243176883
O          -0.38328933361422   -1.98540000282689    0.23437040946281
O          -2.01009560063183   -1.61663253824582   -1.55049044382293
H          -2.57196233865527   -2.07272357304758   -0.89243829653531
H          -0.68207535420098    1.00113649178457    1.33266560687810
O           0.03031282720344    1.39224967242880    1.88038919903363
H           0.45813281437958    2.04566577238491    1.29810403924823
H           0.99917161034782    0.15124368951405    1.83578211904704
O           1.21128725370412    2.77363436671299   -0.19696018294692
H           0.45559838954639    2.56199210836361   -0.81347466347796
H           1.41803639351448    3.69902697655448   -0.33225480898245
O           2.49387839253105    0.38847137912808   -0.72606408334828
H           2.23721473293117    1.31788700341544   -0.58691871726209
H           1.75575650975948   -0.00014664314641   -1.23838871920313
O          -2.79606255784629   -2.98333855853753    0.57363115249342
H          -1.86778349913090   -2.70910866124298    0.71152493554333
H          -2.78820025495046   -3.93710238256487    0.46528446669682
O          -0.76784194351003    1.99993266579191   -1.73550049131713
H          -1.27320671570725    1.51773994831354   -1.05325249598798
H          -0.35668791783619    1.27854025343927   -2.23167296436220
N           1.54947626708423   -0.68662276397484    1.46046294531196
H           2.12750689669040   -0.31655830689006    0.64130414256585
H           0.83247707793014   -1.33825564181424    1.04524916519936
H           2.11256913861574   -1.14244025259166    2.16922797782759
