    26
        -50.45423089  Gyration_radius:  2.53069375166 Dipole_moment: 4.566
 S           1.19933842608066    0.76863172556102    0.11606755046609
O           1.35094367824141    2.17520336045671    0.31512941454251
O           0.54421460516957    0.40540882696605   -1.12396180654577
O           0.42587054050517    0.12744753221560    1.27704061738777
O           2.57025451308770    0.10725846352104    0.20292720330278
H           2.47432706211125   -0.88484986500246   -0.01810944964074
H          -0.62097210077919    0.20624877383720    1.11569254912852
O           2.32898297509901   -2.38047867063995   -0.20305235499708
H           3.01888554742567   -2.81508563418846    0.30277260128827
H           1.44989349081837   -2.62861194223746    0.22590885614648
O          -1.99979963399962    0.22870006167771    0.73694989034821
H          -2.04993727529194    1.03028162305430    0.14587485791565
H          -2.03396416285253   -0.52341705182916    0.11390268886096
O          -1.34003819820228   -1.47878737528874   -1.25966458787304
H          -1.76851947301564   -1.41691688082998   -2.11526720601994
H          -0.57135703680694   -0.87002503120015   -1.29986815238547
O          -1.64488517659823    2.08205954509203   -1.05987701155228
H          -1.38216843147924    2.93063327587714   -0.65196706896528
H          -0.82096029206284    1.64434762632276   -1.32265335644967
O          -0.44443331995300    4.17083924648309    0.17872386902548
H          -0.03488986117142    4.89030077196197   -0.30494204122125
H           0.26728984866523    3.53249499852205    0.36950874364919
N           0.02319484639610   -2.85403334773290    0.97256339365303
H          -0.63063505864593   -2.67111440858820    0.21716981813207
H          -0.04188082295181   -2.07805705561976    1.62182919206009
H          -0.26875468976285   -3.69847857837118    1.44730179974569
