    26
        -50.47603903  Gyration_radius:  2.46495825904 Dipole_moment: 2.633
 S           1.08870622950953   -0.88552995972448    0.52383466172753
O           1.50179284170213    0.42839603120888    0.98606018323900
O           0.72159257664656   -0.86007828629216   -0.88975999788693
O           0.00141502069529   -1.43681380233632    1.32845810850539
O           2.32539326969122   -1.81994485828395    0.67805894991630
H           1.95069645074766   -2.71529262505310    0.55471548003733
H          -1.50521371341545   -0.61821430918580    1.31605266296098
O           1.81578589132874    1.45668917403173   -1.62992676075712
H           1.48423031306414    0.54397337404675   -1.52310814893467
H           2.29468149987925    1.62641404339449   -0.81406162791882
O          -1.65658597752577   -0.03439759604461   -1.58801830549902
H          -0.76497172942108   -0.38748166800018   -1.34484340262593
H          -1.94703301669725   -0.55215084941214   -2.34032425318898
O          -0.62654504712807    2.53637460366659   -1.48297888575404
H          -1.14670555880824    1.74959893077469   -1.71990560925299
H           0.30500848869690    2.29302473164627   -1.69164318975329
O          -2.22122398936272    0.01862033228579    1.11130910076449
H          -1.35855465348551    1.35995637164183    1.22279749761904
H          -2.34072680097837   -0.04744129905920    0.14913154166784
O           0.67740195906512   -3.88214552700523    0.68432383947556
H           0.69922320768223   -4.46226129191741    1.44878920445221
H           0.16749573442543   -3.08947361139561    0.94936360592473
N          -0.56782630328706    2.05832106571725    1.08333226812027
H          -0.62682182570374    2.41402563265621    0.07120158867913
H           0.31959236809008    1.49539643899181    1.15510859610663
H          -0.59080723542411    2.81043495368437    1.76203287237205
