    26
        -50.46045002  Gyration_radius:  2.45555064104 Dipole_moment: 6.762
 S           0.46590269800359   -0.58653489534275    1.37210597098667
O           0.53109274782972    0.49845485561162    2.30799484319953
O           1.28726721375603   -0.36932886953912    0.18084770802657
O          -1.02021427749334   -0.72571341042766    0.84798916707286
O           0.71956086770010   -1.90655477096439    1.95424172059518
H           0.15958239838032   -2.75936292352907    0.98599382143266
H          -1.17525200068316   -0.16347238287619    0.04075946937822
O           2.26803599683168    1.97101552309166   -0.60950195655069
H           2.88121712847739    1.72812385457161   -1.30474837201970
H           1.96895900799601    1.13002880204204   -0.20606282462510
O          -1.49726818124147    0.51223950200234   -1.38724798276516
H          -2.42104069753664    0.76758537769839   -1.40770724694160
H          -0.98333801365551    1.38906573775220   -1.32094157682337
O           0.20054421132663   -1.65376269082883   -1.78644515723158
H          -0.50888432578889   -1.02316636219150   -1.98104553408883
H           0.78243192547921   -1.15225914428629   -1.16344216742281
O          -0.84220441408155    2.64733143798269    1.62228952253955
H          -0.47109806630476    3.35378790137815    2.15380311740638
H          -0.36808109056803    1.83380160413143    1.90440279690078
O          -0.29013198250879    2.73050797084309   -1.00806495978484
H          -0.55763065096626    2.84179294745576   -0.07061712064771
H           0.67582160774835    2.57931865228343   -0.96786081726512
N          -0.34151886009743   -3.31737838609437    0.15403420688374
H          -0.17815163142108   -2.71875367244264   -0.72744988814004
H          -1.33389203433978   -3.35783028005210    0.36615406601867
H           0.04829041312330   -4.24893640828455    0.05051920384907
