    26
        -50.46383710  Gyration_radius:  2.47221903777 Dipole_moment: 4.070
 S           1.08831349948473   -1.10488358458037    0.50276801083478
O           1.22004962213219   -0.70551381104880    1.88180521840323
O           1.68290116558568   -0.14310337059189   -0.42340792376039
O          -0.44388867309685   -1.16708409843226    0.14549854718405
O           1.54134654993385   -2.46935625887718    0.23089631926572
H           0.86205310661411   -2.75581395303040   -0.97630657067036
H          -0.79092023353900   -0.26280869402777   -0.14961946516472
O           0.08424558239187    1.47730528345998    2.68102405515483
H           0.49367179868985    0.61955065936578    2.39188951023243
H           0.29602746732846    1.55845635689060    3.61226407291014
O           0.88074888906877    2.34070193754074    0.13957014347180
H           0.72483494290272    2.30417594058143    1.09441533196439
H           1.40166276577799    1.54122262864119   -0.06755763974634
O          -1.28672749539401    1.09807469380108   -0.69952328759622
H          -0.50780949922714    1.68844056642594   -0.52191271137003
H          -1.92164514511935    1.32861570669165    0.00992640024134
O          -2.41005158122637    1.84448622889142    1.62538401550317
H          -2.55335445110325    2.78821347223438    1.71518098287844
H          -1.57078189977870    1.65111913202921    2.08779305829566
O           0.29430644775692   -0.33124992296609   -2.61511304291817
H           0.95994638905401   -0.14561899838501   -1.90800228634463
H          -0.47793049351874    0.18843258738902   -2.35574426123451
N           0.24819086559339   -2.84729427912740   -1.90438551602848
H          -0.68108138399127   -3.15141749252399   -1.62881052156281
H           0.66722569681349   -3.49570588075648   -2.56362482692129
H           0.19866608683044   -1.84894482958269   -2.30440762304906
