    26
        -50.45156013  Gyration_radius:  2.55481521433 Dipole_moment: 4.009
 S           0.74839835622991   -0.90328048632344    0.33126277619289
O           0.63513571119987    0.44800193123427   -0.18984405333448
O           0.37415591530673   -1.92252338337469   -0.59888934082620
O          -0.10285254273787   -1.01084247030885    1.60423848284959
O           2.17434774741342   -1.13485931012020    0.80754916048761
H           2.46565891532077   -0.41864123482063    1.49168124360843
H          -1.03477549683979   -1.36459696591286    1.30097959911010
O          -2.22958000038363   -1.76004289601432    0.53034687394586
H          -2.38308019947405   -0.89268040098607    0.05902790935840
H          -1.84491709423805   -2.35085187610574   -0.12667171208029
O          -2.07078832093329    0.52340232874678   -0.71589490630921
H          -2.15839680900513    0.35048033596707   -1.67776803738085
H          -1.12388013912606    0.66190180852676   -0.56448390522055
O          -1.86235513981648   -0.02112595370131   -3.34609196699655
H          -1.98072256555122    0.63165248909359   -4.03727049518947
H          -0.89719045156163   -0.19891543889825   -3.29202014461639
O           2.82627634061110    0.72571862851682    2.38712907117405
H           1.94939903704257    1.21160425728804    2.48535259649385
H           3.41295756668614    1.30831164330777    1.89912671254119
O           0.75503288537829   -0.38302836833755   -2.81690543244348
H           0.71625182041446   -1.24965115571600   -2.38964509954447
H           0.85570988670220    0.22982511985447   -2.07591766475331
N           0.45129613153641    1.84648263408935    2.31572094455190
H           0.33716385457542    1.60331143864593    1.33454596152614
H           0.17254243620982    2.81095904853237    2.44462115247911
H          -0.18578782496036    1.25938829681305    2.83982025436924
