    26
        -50.45278155  Gyration_radius:  2.51293359654 Dipole_moment: 1.921
 S          -0.81184958945102   -0.12216944464984   -0.84563867137681
O           0.23787887495946   -0.88251060409721   -0.21374769997804
O          -1.30663159931024    0.97250900832401   -0.05616529580974
O          -1.96647719473247   -1.05905353129136   -1.22437398327290
O          -0.33937368144304    0.42397590909563   -2.18416279403055
H           0.49888721754443   -0.06536817087324   -2.56217345415407
H          -2.39890626622852   -1.38631911106388   -0.36112880633619
O          -2.84723999561330   -1.88086697684374    1.01131051005915
H          -2.98080752982755   -2.83137234331246    0.99474576228179
H          -2.05539754037874   -1.72023230431566    1.60699378054370
O          -0.87141574169452    1.28515276168901    2.57678436371627
H          -1.68946871528512    1.58717365756499    2.97567225627747
H          -1.03413627003241    1.26469387661861    1.61400361568761
O           2.84843457300149   -0.17430801015013   -0.70616236819418
H           2.20998925459283   -0.75757944491129   -0.27544042413994
H           2.52622188096274    0.72725567909136   -0.46850862752658
O           1.79481836853478   -0.57317388325505   -3.03003218851520
H           2.17040134052604    0.05134811696262   -3.65516112504071
H           2.32295137542906   -0.47941793195485   -2.17541040915646
O          -0.63457485206516   -1.40978441604054    2.28303909584612
H          -0.12165665965464   -1.34668221177324    1.45918564362820
H          -0.65354641952334   -0.49659461415410    2.62941082295218
N           1.46907599744329    2.04629338759458    0.04191784794404
H           0.52723464194238    1.77168433279802   -0.21838580367904
H           1.61070521562820    2.99890848426001   -0.27223378937146
H           1.49488330468875    2.05643781469655    1.05566173155958
