    26
        -50.45474234  Gyration_radius:  2.44816403768 Dipole_moment: 2.041
 S           1.04298941801207    0.78840550789988   -0.84997204021391
O           0.76597983433100    0.81263495416738   -2.25050626482697
O           1.13063374026351   -0.54040216558406   -0.27910882806832
O          -0.04978516794459    1.57703388248700   -0.08208522791570
O           2.29754189428267    1.56891552739435   -0.51837558067415
H           2.51744602302237    1.28960464620689    0.46156256928712
H          -0.97001326101908    1.16469697549832   -0.23470019733526
O           0.26546012490781    1.36011365319305    2.77004043046004
H          -0.23076587135741    0.52241045244936    2.57973710242138
H          -0.01827068852756    1.97701062581292    2.08948555013653
O           2.58297529676110    0.66869631411427    1.79239648362296
H           2.39360322863149   -0.24556192229032    1.55576961608732
H           1.77633975479042    0.98842782234749    2.29466733844079
O          -1.50098345841162   -0.59396775517925   -2.72010301564643
H          -1.14306612343301   -1.46304119652131   -2.44938296884286
H          -0.71500541171380   -0.03177535213887   -2.83334871121983
O           0.02844040768798   -2.56630142838229   -1.68301929103946
H           0.47555748183962   -1.89539576140492   -1.13397580125451
H           0.69761608384982   -2.92479562084872   -2.26850572103811
O          -2.32012684163870    0.53595065769900   -0.56020791790767
H          -2.10736008883575    0.03218120490261   -1.41002704209951
H          -2.95175443934066    1.21519493845248   -0.80671040272115
N          -0.91300662741309   -0.86293812707586    1.81383486840597
H          -1.07787006199036   -1.73768237422580    2.29542502693238
H          -0.20980532893779   -1.02723830999112    1.09869819108411
H          -1.76676991760855   -0.61217712932377    1.32841185393333
