    26
        -50.46537492  Gyration_radius:  2.40795783526 Dipole_moment: 6.810
 S           0.08333901119513   -1.07026359056518   -1.11683579125996
O          -0.78485399620263   -1.98177910194172   -1.81970992218814
O           0.00332934663945   -1.26149734575341    0.34710047433100
O          -0.45246182681204    0.39859827140804   -1.35867648908625
O           1.45294507969737   -1.02349497361452   -1.56443757331935
H           1.92182969435084    0.49919155179568   -1.64873318280317
H          -1.40437443055869    0.40117068337361   -1.11480856254396
O          -0.96159003991945    0.92637713236626    1.44730127372525
H          -1.78253180209395    1.09259152532280    0.97050445818877
H          -0.66133377218469    0.04269143372091    1.12871284530379
O           2.33007992807406    1.40022361422351   -1.53692854629302
H           1.76058885736907    1.75222404503067   -0.10343417335565
H           3.27515382167196    1.25121543205676   -1.61274951421888
O          -2.95212168766378    0.33553210532113   -0.48417142905907
H          -3.60798520609084    0.42556360885621   -1.17741388458479
H          -2.95137180705315   -0.63229551313240   -0.23130170087693
O          -2.61316143713692   -2.19851007967755    0.00359095628434
H          -1.99926027412963   -2.27635827764178   -0.76784458478108
H          -2.03373136207074   -2.28454125067119    0.76610685469783
O           2.19786826946542   -0.67110689551857    1.63654941631800
H           2.06589710859227   -1.09668868115561    2.48548947092717
H           1.46824981853544   -1.00357078023113    1.05527970411875
N           1.48569964079686    1.78027554176943    0.92639467374740
H           1.80741401532144    2.62870143532401    1.37860167621610
H           1.90987495630483    0.91434493348401    1.35201917562921
H           0.44250810390178    1.65140515585249    1.03939439488447
