    26
        -50.45535730  Gyration_radius:  2.47491903529 Dipole_moment: 2.884
 S          -1.26887673961477   -0.03428660960469   -1.13622753518655
O          -1.08761039224897   -0.43182638058975   -2.49629802687076
O          -0.69052098901143    1.25671754980700   -0.81590696427074
O          -0.66770775852564   -1.07454262233132   -0.17665492231433
O          -2.74520640825807   -0.04627038641885   -0.77718823588870
H          -2.83435677401473    0.11804788552457    0.23439731263121
H           0.36444233366490   -1.11256485058649   -0.30106526631712
O           1.31285326291414   -1.43094012914073   -3.15691835950285
H           0.37879261330369   -1.16888924118838   -3.04133170655871
H           1.68173122404679   -0.82272662752097   -3.80044488524761
O          -2.88707659135937    0.46310547834145    1.69365852499266
H          -3.51684472075172    1.17447954315533    1.82985043402037
H          -1.97614692378489    0.84751718216765    1.89123347415369
O           1.81362660332191   -1.04875362698001   -0.57802290301285
H           2.02768364413260   -0.08716881028741   -0.61424397012718
H           1.81667395843017   -1.34631999371571   -1.51635284447289
O          -0.50384870153337    1.44065515563243    1.86212493764473
H           0.08192391546975    0.68232983972384    2.10374978938379
H          -0.47906368892597    1.50381998211364    0.89106572349097
O           1.95012213681078    1.60544435420064   -0.73179308398350
H           2.09340640573921    2.13042971021771    0.05867407644862
H           0.98882267914033    1.63215162889719   -0.90448871373698
N           0.94665759671426   -0.80328004672952    2.36145019979533
H           0.19711661215904   -1.46544888433732    2.19821516096742
H           1.35145606932474   -1.00285554780326    3.26752170381741
H           1.65195063285921   -0.97882455257183    1.65499605015448
