    26
        -50.45208258  Gyration_radius:  2.52369108977 Dipole_moment: 1.260
 S           0.56852459156553   -0.59986953838383    0.98895930389776
O          -0.24423556363372    0.59463287972316    1.01905844270358
O           1.97132454886432   -0.38923272637502    0.88746527646533
O           0.10223692868300   -1.47323871340170   -0.20267919792700
O           0.28422774290882   -1.45634184131711    2.22438636779470
H          -0.69569081629652   -1.72383654235216    2.23135803376217
H          -0.75234166267127   -1.13022663378064   -0.63387650557842
O          -2.19448562939867   -2.01889932791602    2.22857697007665
H          -2.59753959893295   -1.20390565288443    1.81269711733143
H          -2.53039801589558   -2.06383310832654    3.12617538948041
O          -1.91821715455423   -0.50095424685669   -1.42889127477126
H          -1.92859160270585   -0.89403412720920   -2.30387593130783
H          -1.50365790945047    0.41961763502849   -1.53447387105087
O          -0.58126581165301    1.68365751241125   -1.47831940178785
H           0.24468917286920    1.29759707924611   -1.85678193890892
H          -0.43080142396700    1.69490886541269   -0.52175807269687
O          -2.90067329508470    0.20855985210712    1.09115455112848
H          -1.99701308881790    0.57098559027942    1.15553180880710
H          -3.02076211308614    0.01158045188030    0.15378238805092
O           1.58539079238588    0.27384473790218   -2.06231196734092
H           1.51716823319952   -0.47483671671644   -1.46268582968365
H           2.35141269533606    0.79676786891358   -1.73012974097324
N           3.53101264053826    1.54522882006769   -0.65730994846750
H           3.20733831609230    0.94528696272458    0.09806104024262
H           3.41049518918304    2.50592148085260   -0.36261079212433
H           4.52185283449952    1.38061945878824   -0.78150222884025
