    26
        -50.44976688  Gyration_radius:  2.54164097523 Dipole_moment: 4.970
 S           1.38405457770403   -0.65801628578196    0.63470771460988
O           0.76151809292105    0.61353247347385    0.94991134477289
O           2.44796201048263   -0.58719319661941   -0.31409131499460
O           0.28637239777013   -1.62421417786861    0.13241719355091
O           1.84898861036761   -1.33301897868608    1.91506158769473
H           1.15047501935411   -1.08613638627875    2.62738205818101
H          -0.23685483078989   -1.25236764555618   -0.64415852948771
O          -1.89920347349719    0.66153682919803    0.46371917596233
H          -0.95335369660855    0.79948205243663    0.64908510261660
H          -1.92497401590641    0.26088203307144   -0.41432845568257
O           2.03755789660576    1.94820835651765   -1.14401538186742
H           1.49242167275008    2.06764445897144   -0.35911629516815
H           2.47764663137977    1.09712503242512   -0.98855456311958
O          -1.06032521281274   -0.68941380986916   -1.84755394538005
H          -0.48891089372537   -0.03687144088082   -2.39892640851730
H          -1.28139074623647   -1.42279611351289   -2.42433070102474
O           0.04115287527533   -0.43527809989392    3.41755689678993
H          -0.82430501353724   -0.82386652527612    3.13012360373461
H           0.09464934971596    0.42407274273291    2.98247663027768
O          -2.31111531417944   -1.11627331144799    2.40948066582560
H          -3.08798623002317   -0.86540281241602    2.91192323213408
H          -2.25995235786250   -0.49498375368724    1.64481285681451
N           0.40011101888038    0.95552704642290   -3.22139109485315
H           0.99308081786637    1.41124753086874   -2.51655891947804
H          -0.10643090573157    1.68206386411496   -3.71182045062839
H           1.01881173970943    0.50451011770782   -3.88381200269410
