    26
        -50.45143779  Gyration_radius:  2.59332832359 Dipole_moment: 3.191
 S           0.93203510922041    0.27448037075989    0.65742237575107
O           0.39412253679027   -0.51854975720312   -0.42551778858631
O           1.58351212190184    1.47841204749312    0.22943717922461
O           1.90556425383755   -0.60666693558008    1.46380063187309
O          -0.14727403440570    0.64243035632708    1.65771419185329
H          -0.74362861441338   -0.17630415359693    1.96172904756764
H           2.40398095089564   -1.17235663785530    0.78285554211354
O          -1.98009958108458   -1.83713416600567   -0.20695529678251
H          -1.11224284553569   -1.48727010908137   -0.46797920121934
H          -2.61809763152590   -1.11364974055114   -0.38593356784626
O          -1.65493480713318   -1.24531276112100    2.26983470814380
H          -2.48587913190569   -0.83867461807177    2.53075397149786
H          -1.81506833479392   -1.63480474566151    1.34881473899361
O           2.92206118638648   -1.75263680266930   -0.56250844690031
H           2.07389143367942   -1.85069212413107   -1.00934558912653
H           3.33923559557821   -0.95427575757067   -0.95912256339456
O          -3.45651532668434    0.40748955204954   -0.48175499344457
H          -2.69510160982259    1.02749720528674   -0.59532307859614
H          -4.02479241943625    0.53265517973487   -1.24307935932054
O           3.63772474242411    0.70981801075366   -1.30180385204871
H           2.88766906416005    1.11680505520429   -0.82502634497116
H           4.43167300528353    1.12236332494508   -0.95567969830233
N          -1.21912061549698    1.89071827247594   -0.86959647652495
H          -1.05281759362845    2.61868986579781   -1.55455880627389
H          -0.59451547967951    1.12069051988092   -1.08636134009939
H          -0.91138198462418    2.24627853837533    0.02818401641218
