    26
        -50.46448902  Gyration_radius:  2.54398935193 Dipole_moment: 7.072
 S          -0.64251385929690    0.85361065030062   -0.72577276552749
O           0.55652798968079    1.11210788237042    0.08910497938944
O          -1.72529302389876    0.36815420545402    0.13857713291355
O          -0.35941405725439   -0.09368255015911   -1.78051457766865
O          -1.10675330149548    2.19788952246031   -1.32961393313740
H          -0.64898227415000    2.26923086395025   -2.22189775090356
H           0.16386422035496   -1.92320224143461    0.27469447047617
O           2.37115385887362    1.60995952408808   -1.82018472655590
H           2.72099266282929    0.72437932590988   -1.94219175342560
H           1.76733024225786    1.55122211839433   -1.05494075438959
O          -0.71113172256737    0.67909732187202    2.57169157944481
H           0.10727001358335    1.08870437924272    2.27384559380478
H          -1.26368185389404    0.67231010927801    1.76350572268436
O          -0.90560418143922   -1.90431655803894    3.10699896643643
H          -0.76000817533930   -0.92695637498628    3.02718915732890
H          -1.66567827661381   -2.00653851446999    3.68174105670547
O           1.65988998958741   -1.23989913159471    0.34232417890802
H           1.33055430059949   -0.31846470739964    0.20020565873161
H           2.06326986183517   -1.25060919557569    1.21357650150085
O           0.25916553623465    1.88662317145203   -3.47807083195500
H           1.15232797652738    2.00152774605700   -3.09423347472473
H           0.04579794260815    0.95361036478677   -3.31484345329838
N          -0.86352996083272   -2.07990183687881    0.46008919823576
H          -1.23330515784666   -2.83682615565864   -0.10423884820084
H          -1.33790767798656   -1.15828734560689    0.22566126183830
H          -0.97434107270357   -2.22974256401287    1.49729740128854
