    26
        -50.46448887  Gyration_radius:  2.54417362349 Dipole_moment: 7.070
 S           0.27957683664141    1.26089210010859    0.02240687749585
O           1.33661961534752    0.73583478583499    0.89540716623702
O          -1.00482042181528    0.63334457069240    0.37637279203991
O           0.60054889888836    1.03773393675637   -1.36942229268848
O           0.16334253467322    2.77545146473854    0.30458547767986
H          -0.15272757536935    3.18960658282060   -0.55546006770631
H           0.68650566113867   -1.68454657375928   -0.70403329237684
O           1.23877265094327   -2.92621376909470    2.00123237119157
H           1.87861693586985   -3.09199958772587    2.69520867815163
H           0.67998417837333   -2.17449314002961    2.32618133092892
O          -0.95003468062410   -1.65652172687657   -0.87510421259872
H          -1.05622081355245   -0.76697132678623   -0.45653422149898
H          -1.42037700209969   -2.27670407851687   -0.31298241406434
O          -0.61120311562508    3.32138176677604   -2.07846815586819
H          -0.02301492446005    2.57927126704341   -2.29273836479849
H          -1.50235706558835    2.91877288317631   -2.03251638978496
O          -0.02697355565346   -0.69960045831775    2.66296643989966
H           0.57203443081503   -0.08205197166583    2.19564941877802
H          -0.89389836599842   -0.47046281491616    2.31356833377577
O          -2.57178006699180    1.52753715423632   -1.60635692469691
H          -2.46315849289611    0.80793379718335   -2.23236009260282
H          -2.11611785899066    1.23910589802688   -0.79222184395789
N           1.63839882968892   -1.59232608579728   -0.25695448733547
H           1.67230566752288   -0.60614934045059    0.13745894029124
H           2.38247201932175   -1.74471456230225   -0.92866339610369
H           1.66350567049543   -2.25411076128355    0.56277830961346
