    26
        -50.45669546  Gyration_radius:  2.5079436272 Dipole_moment: 2.577
 S          -0.83240212075529   -0.29698853512257    0.68478704028068
O          -0.49377536621025    0.73003845223184    1.63894541271897
O           0.18222623244728   -1.31007600090502    0.53066577255301
O          -1.13254537901599    0.34137105278948   -0.66727846401127
O          -2.15424653766008   -0.92600378134089    1.09686054188429
H          -2.37111056407679   -1.67456855440605    0.42954144322510
H          -0.28928605055551    0.93176515581694   -1.00648550075314
O           2.10218124984221    1.45761283583092    2.31065286956338
H           1.97998152038715    2.38657300102682    2.09311686798889
H           1.20987360552375    1.08197806977591    2.35324902347920
O          -2.52408762332995   -2.80774250707680   -0.55091181921917
H          -2.25725276335614   -3.61234200767321   -0.10009319166566
H          -1.81802401480393   -2.62323745242677   -1.24446683221496
O           0.84656180686516    1.67983168935925   -1.28162704172968
H           1.58411499854301    1.10940337687276   -0.90874841332938
H           0.74804236417294    2.42715923785615   -0.65600483486435
O           0.15718192107489    3.20026023762861    0.83394410972990
H          -0.17176542306576    2.35929733027234    1.21155641190841
H          -0.59171967217948    3.79700705240979    0.80058213836236
O           2.44149838121978    0.09075510482256    0.00204489584302
H           2.59061721422063    0.55931590839158    0.84861378473124
H           1.78642017024046   -0.59504289949513    0.21295233221056
N          -0.47852012877087   -2.20120418380657   -2.09014737671929
H           0.08060962643163   -2.80621755056868   -2.67793431904019
H           0.06535342772952   -1.95440074648965   -1.26598971771420
H          -0.65992687488748   -1.34454426578504   -2.59782513329405
