    26
        -50.45910995  Gyration_radius:  2.40222881675 Dipole_moment: 7.869
 S           0.96007216753949   -1.05017393179217    1.13597146289646
O           0.45389583172717   -2.17249275388304    1.85399572323657
O           0.21344283328912    0.20017706857196    1.40172915525101
O           0.79116844347810   -1.28192833442839   -0.41091065560180
O           2.39405979320234   -0.78351108574944    1.30580384666063
H           2.53173810501840    0.53734679920877    0.92728112883064
H          -0.13771994838477   -1.71896349239888   -0.55764882948644
O          -1.56033132026946   -2.10600424829429   -0.72244325978453
H          -1.90413390942583   -1.46632210756324   -1.38004232425052
H          -1.94212081681085   -1.84067087169490    0.14452317768028
O          -2.02947025966687    0.00914156251313   -2.33072207294973
H          -1.77420813218538    0.64781649087609   -1.63768853289953
H          -1.37088388683120    0.07042328794528   -3.02485936085784
O          -1.13348876870831    1.61949768605578   -0.30573762452506
H          -0.64813597264145    1.06250785178411    0.35733291944835
H          -1.91438195051401    1.93920505217426    0.14969268149532
O          -2.09460750869977   -1.14869186175992    1.72937868710373
H          -1.82878555405577   -1.92291532997708    2.23495684317713
H          -1.29776808552144   -0.58736547867880    1.73399404309423
O           1.19425840638480    1.08147635756063   -1.67771292902534
H           0.33578366364032    1.47865531766393   -1.47116793915235
H           1.11378204311886    0.14199514208318   -1.41705016623825
N           2.45921462209523    1.61148629869917    0.57625911068297
H           2.06803509656897    1.54034568772443   -0.40911096751541
H           3.35178459651302    2.09193094605415    0.61112175420416
H           1.76880053113127    2.04703395728619    1.18305412853727
