    26
        -50.46029066  Gyration_radius:  2.63183329805 Dipole_moment: 4.871
 S           0.49746265341083    0.53963436492606   -1.47735155473754
O           0.41286003241729   -0.89230341482634   -1.14660940034144
O           0.67906371252620    0.78272814834778   -2.88256340581414
O           1.81136537629708    1.03816244032911   -0.71960818896986
O          -0.57984689968018    1.28385804321849   -0.85452931352083
H          -0.32489206691229    1.57613414211589    0.74119772019640
H           2.54158727696798    0.87967675108933   -1.35625500209443
O          -2.28824106428901   -0.79672762159445   -1.21412550533856
H          -2.11412227110998    0.15406791499394   -1.17344036671869
H          -1.40112512759412   -1.17476770825860   -1.31889614990845
O          -0.10622566669400    1.70767657457096    1.69315001076333
H          -0.12302256056699    2.65573805031793    1.82801415891401
H          -1.06798370778822    0.30566011609175    2.68724763531108
O          -1.08304087849224   -0.65743255645431    2.79694304398971
H           0.17458237844591   -0.89166290088123    1.97515152927139
H          -1.87026160006412   -0.96959015959739    2.29199177840733
O          -3.09350353746520   -1.42258507474012    1.24562101471628
H          -2.85839228927187   -1.17220647717038    0.31969333936052
H          -3.45865769637238   -2.30662537247851    1.19921061168510
O           3.27123074924756    0.54671967863786   -2.85456573097770
H           2.33154106888940    0.51375813763142   -3.14014181212085
H           3.66984129559954    1.27514977237023   -3.33625519184492
N           1.05474395529011   -0.79637116544826    1.34493849145809
H           1.81215210110807   -1.40635956894259    1.63309585667444
H           1.32609118933019    0.19060666694663    1.39891666803477
H           0.78679356548754   -0.96293881036865    0.31916976255370
