    26
        -50.44793606  Gyration_radius:  2.63703400685 Dipole_moment: 3.009
 S          -1.25854985160258    0.24829825834257   -0.23055868503572
O          -1.40787576150771    0.22105699879513    1.19214000129030
O          -0.27781937775874   -0.68554970955009   -0.74247369431454
O          -0.92547700229111    1.65180844576522   -0.73318959731411
O          -2.61808018031500   -0.03751713031410   -0.87090680564997
H          -2.54196739146821    0.03919809148381   -1.87728552222945
H           0.03304704870362    1.92031627235006   -0.43063980281842
O          -0.11811166203092   -2.26473660595071    1.48827557689884
H          -0.79491156513456   -1.72396865270077    1.90770579431429
H          -0.03270479892411   -1.88446581293762    0.60184446652249
O           0.30141021255688   -0.38284277720860   -3.30482204815473
H           0.22767221521619   -0.46531343083524   -2.33118991938557
H           0.83763021785896   -1.12132010140465   -3.59905515007339
O          -2.32157712963872    0.01571402141399   -3.41398891568734
H          -2.68719879511420   -0.78717970793218   -3.79307485040230
H          -1.34365647961518   -0.03452394519069   -3.52418360267479
O           0.77723513051487    1.31887441256986    2.45265006933090
H          -0.09523849622243    0.96393776698278    2.22016322276630
H           1.34473601123664    0.52031601653051    2.62828576595954
O           1.33318955103002    2.26632947969304    0.14896843055463
H           1.39677600181679    3.22131922082582    0.22426114885854
H           1.21532904802595    1.91292717526068    1.09647400227273
N           2.15217529966100   -0.96876858629651    2.73281169154591
H           1.44351675368992   -1.58853418916474    2.33478441801514
H           2.37554274842771   -1.30804826491426    3.65965197756408
H           2.98490826286769   -1.04732726557803    2.16335203784562
