    26
        -50.46201084  Gyration_radius:  2.52462148108 Dipole_moment: 4.860
 S           0.63364514621673   -0.02512918946464    1.61758169200551
O           0.29908811460657    0.00124083704773    3.01474248467862
O          -0.10008083822812    0.96798308906977    0.83076167915269
O           0.16179600992796   -1.43689919687758    1.02474827872360
O           2.05263962748378   -0.00676478089670    1.30348298054390
H           1.95239131392625   -0.40341134385413   -0.13258257666220
H          -0.80857424495648   -1.38507179079057    0.97058202749350
O          -2.24981512392149   -0.67638531371697    3.20852941670834
H          -2.63296089665825   -0.23062778020982    3.96543852868675
H          -1.29091424584072   -0.45751962958019    3.22814949621553
O          -0.92202743172480   -0.96333804551871   -1.78244357013293
H          -1.25597301801257   -1.75604333815333   -2.20533657007787
H          -1.49824533073337   -0.80324513751362   -1.01219379987752
O          -0.24847578049891    1.88660260981573   -1.67647007373230
H          -0.18225049542548    1.70625572949982   -0.71705837485738
H          -0.71972713217904    1.12990760897657   -2.04064476202426
O          -2.28227947065324   -0.43059566750264    0.54210869307146
H          -1.66296646423570    0.32332641097332    0.64852182939279
H          -2.62256621102847   -0.58712351209035    1.44185251561085
O           2.25703551859876    1.66384261105651   -2.41020088242175
H           2.76954904277257    2.27653254013439   -1.87963189045463
H           1.30429241578378    1.90286393863207   -2.25893515321051
N           1.80418243497803   -0.63766036124384   -1.17761536077586
H           2.35492132665356   -1.45213693084445   -1.42891672733196
H           2.09213590563567    0.21485352894002   -1.73992257844811
H           0.79517981760514   -0.82145687590507   -1.33454730226192
