    26
        -50.46218810  Gyration_radius:  2.39321656376 Dipole_moment: 7.363
 S           0.57232074820623   -1.40648924395842    0.17138587729726
O          -0.23058035728235   -0.46203924735041    0.96652177374431
O           1.95901560142876   -1.36897498807515    0.53098195381142
O           0.37686698735609   -0.96133522419404   -1.31544087313626
O          -0.03223090890436   -2.74239187384397    0.19726554754139
H          -1.14265041681453   -2.60934159193581   -0.63044360509808
H           0.56179468980075    0.04682899514207   -1.37377690197991
O          -2.19118345218587    0.17219784730035   -0.58221476843109
H          -1.79480287444821    0.79555097487541   -1.19871539309516
H          -1.48658678174710   -0.01429040094760    0.09551663844570
O           1.16556025641355    1.29035266404814    2.36064641267655
H           0.69062054119971    0.56579951237329    1.89296785138410
H           1.48799344293101    0.91277191649949    3.17972725182582
O          -0.67931324116267    2.58512946361690    0.72199754444814
H          -1.44007247214897    2.04555358498949    0.95163427898867
H          -0.01545795132441    2.41302200049938    1.40639388435618
O           2.89245037532844    1.13055545563687    0.17547073344142
H           2.77640220718318    0.16386569212346    0.23785097635095
H           2.53238911233937    1.46564619309738    1.01096120323240
O           0.76355216932207    1.53089900670758   -1.32207516473234
H           0.20643973418697    1.99420337555073   -0.65956839080194
H           1.66895472745837    1.52764583548193   -0.92075303804285
N          -1.99259632904612   -2.35266432923440   -1.32792442028532
H          -2.21085883387793   -1.33244493975697   -1.11434501015352
H          -2.79624774764966   -2.95386174099215   -1.17645975717377
H          -1.64177921656981   -2.43618893764383   -2.27760461460148
