    26
        -50.47562130  Gyration_radius:  2.39551397598 Dipole_moment: 6.101
 S          -1.65667313918625    0.60271408668648   -0.29391681291972
O          -1.18376765889369   -0.24104366909881    0.81631548509633
O          -2.15583274854177   -0.20135691689057   -1.38167627058312
O          -0.59133042320271    1.51436018984108   -0.70638418196787
O          -2.83105908408031    1.45696837579836    0.26389948560312
H          -2.37256365657130    2.06333841977698    0.87877755057632
H           0.76187090017053    0.94141414457905   -1.47573270381878
O          -0.94650568062450    2.83465273245734    1.53585242329978
H          -0.60498326474009    2.63683876201639    0.64481566435511
H          -0.35994744623816    2.35634567956302    2.13491596770734
O           0.16084111177416   -2.42791873945024    0.15279155216437
H          -0.48595907598605   -1.76045194447745    0.47036248162221
H           0.03717113980945   -2.43520385710746   -0.81175201000571
O           0.68473869840272    0.59187059875031    2.35639212634466
H           0.53858510633878    0.15703859285071    3.19849962968858
H          -0.07898616521002    0.31068684978754    1.77421912715515
O           1.49408930268206    0.36783352782991   -1.80118427998937
H           2.00362861925341   -0.21237006561171   -0.46734455031812
H           1.03400724160765   -0.36627318784756   -2.24463429814543
O          -0.27381662700170   -1.63626082345436   -2.43867229117609
H          -0.60013438857377   -2.01457272979506   -3.25682818033073
H          -1.02243820925564   -1.09105732043970   -2.07777564012357
N           2.12861436771146   -0.73413912650125    0.46896851526800
H           1.44852351278716   -1.55980976769109    0.40125092791422
H           1.78456289884488   -0.12654931247742    1.24215850348198
H           3.08736466870382   -1.02705451909738    0.61668178906110
