    26
        -50.45830980  Gyration_radius:  2.5421215933 Dipole_moment: 4.404
 S          -1.00433109027513    0.85336298700078   -1.00584869337708
O          -0.56898688385574    1.02222996152763    0.36990945281176
O          -2.35594842023228    0.35332186968677   -1.14058851942740
O          -0.05988376098086   -0.00773052914704   -1.74188880136428
O          -0.91971859776210    2.27061952884028   -1.65678239281586
H          -1.22628519908425    2.11402121870665   -2.57179614701007
H           1.09860180426773   -0.53243813146320   -0.97701920171420
O           1.76692248907068   -0.84144509943224   -0.24825202355680
H           1.13480926635763   -1.24632813516477    0.45986831640957
H           2.04849019183361    0.10293039864087    0.22425254722716
O          -1.78849048803333    0.88298607623867   -3.72546422238510
H          -1.00911043899635    0.32408183746418   -3.62563503439623
H          -2.41071181096875    0.57316748728503   -3.05006557688412
O          -1.75035919859970   -2.17075789939128   -0.51846945979762
H          -2.13720835704616   -1.29190034374168   -0.70408116954062
H          -1.30343212997574   -2.43348772874894   -1.32589538742150
O           2.01375811142534    1.31356638323000    0.93951648259012
H           1.07748192625477    1.52777546749992    0.74715533593703
H           2.01228889342867    0.99355993039991    1.88601940044755
O          -0.08795929329488   -1.38284911220851    1.39978416739779
H          -0.72884730319438   -1.91318533077389    0.87796495618307
H          -0.39152519371718   -0.46159524301426    1.25430410828908
N           1.72474980023623    0.13551049484090    3.31874372335662
H           1.10090444184582   -0.61575642081236    3.04112335526691
H           1.23666548578820    0.70656077843623    3.99698892240963
H           2.52812576575321   -0.27622044586651    3.77615586111498
