    26
        -50.45612483  Gyration_radius:  2.43701815215 Dipole_moment: 2.659
 S           0.50610360494772    1.20786428378099   -0.04577737064499
O           0.11252516196510    2.04044465696542   -1.14515712846927
O           1.47944357765664    0.18880123115109   -0.38843370045779
O          -0.74222169940124    0.50645622701072    0.53284431760383
O           1.00794060919974    2.03357511034707    1.11034835799258
H           1.54813502424123    1.34838958506298    1.73762130489755
H          -1.16931174080495   -0.07341289973525   -0.20939182564093
O           2.20158805239278    0.27213601477547    2.35992260760654
H           1.43352791992300   -0.34584669962797    2.64773026184970
H           2.60670142247180   -0.15615070944869    1.59789811601435
O          -1.66864914292607   -0.76406876359140   -1.44194983479046
H          -2.25527266415457   -0.05209949187086   -1.75992288723643
H          -0.90879243641824   -0.74336716997342   -2.07486847391039
O           0.51185271909600   -0.24887654772990   -2.86314892859479
H           0.37054448040974    0.64007410818633   -3.19977503026136
H           1.09114138277643   -0.14616889018507   -2.08933536232959
O           0.41361104390962   -2.30126171042582    0.15845873277199
H           0.91112056871128   -1.51010311841207   -0.10036161515083
H          -0.36345625254275   -2.32670379089650   -0.40648246776939
O          -2.40549768486391    1.73836655787761   -2.07831879786022
H          -2.97789260940892    2.41951639380675   -1.72308310108068
H          -1.49785657561599    1.97343140168660   -1.80832246869039
N           0.17093843142657   -1.27623798305383    2.82321219021637
H          -0.65015109013848   -0.69027004692783    2.73747334461738
H           0.06782462712017   -1.86647509755313    3.63797524967634
H           0.20610329010010   -1.86801265119305    1.99084450967725
