    26
        -50.47114527  Gyration_radius:  2.41083247568 Dipole_moment: 3.640
 S          -0.07122690006098    1.96922027345977    0.37627511521448
O           1.29180712107670    1.70140174632800   -0.05294464608827
O          -0.42498954530529    1.30129239725740    1.61752165691791
O          -1.03797125868006    1.72040097250177   -0.67929937373134
O          -0.13532237346689    3.51927615268677    0.69433871915650
H           0.18205122627109    3.90581729025122   -0.11478855439069
H          -0.88042802787547    0.54603406667775   -1.90827070829581
O           1.27066734704838   -2.09946522426354    0.61843941721118
H           1.72366988877999   -2.84204306900454    1.01952194675407
H           1.50135354347835   -1.30075286625526    1.17996026439567
O          -2.58840736552005    0.06267869546845    0.86845141039694
H          -1.85078969378863    0.50492404466373    1.34670874518131
H          -2.74337104448049    0.65952103688060    0.12640586364888
O          -0.68860514441675   -0.29100990916268   -2.38259592553188
H           0.29604842465729   -0.35527305352790   -2.36516348484854
H          -1.05713618104953   -1.28189657042727   -1.31112586160921
O           1.85471241061192    0.04922134496933    1.95868151206717
H           0.98230232083830    0.41435368519279    2.19478660468845
H           2.12738298613643    0.65241405093119    1.24819637457674
O           1.84170123866947   -0.41072130513921   -1.63365961095571
H           1.76063827554433    0.42539582689009   -1.13622417557747
H           1.84039095819134   -1.11060901332276   -0.96694848078543
N          -1.25680151791333   -1.83696825994739   -0.39226303835270
H          -1.83996934895220   -1.17792559428918    0.20627697206551
H          -0.34415287843085   -2.02459467643789    0.06625476768878
H          -1.75355445136189   -2.70069205238622   -0.57853549979773
