    26
        -50.46610748  Gyration_radius:  2.40608684025 Dipole_moment: 4.822
 S          -1.08635946669934    1.08820847252855   -0.09043661853931
O          -1.26053716436957    2.44410946878756    0.35432277609381
O          -0.23900600762329    0.30857375994992    0.83077498646698
O          -0.25146497325146    1.11320476729256   -1.44922935741226
O          -2.29228095831235    0.36869261557595   -0.42138071110145
H          -2.35233122911485   -1.28338834174128   -0.53737375004810
H           0.67403208973074    1.42963761694426   -1.18806038653954
O          -1.05711442378668   -1.93913991765984    1.93242921777970
H          -1.68473644655874   -1.76446068881684    2.63482699049627
H          -0.76701129346035   -1.05711300793206    1.60460473141673
O           2.09343520054657    1.68838809758273   -0.62740875731876
H           2.40786757527021    0.84793443352749   -0.27374909572413
H           1.85725467170287    2.24706810894567    0.15534471109830
O          -2.04487553088403   -2.22381571359869   -0.53954382506888
H          -0.78395812226349   -1.96237140910468   -1.26306809700756
H          -1.77120506505447   -2.37877540991981    0.38988748261264
O           1.85330373884577   -1.09173444807201    0.29867385580332
H           1.99365555552231   -1.69699353746147    1.02919491045323
H           1.10525512040594   -0.50256722816473    0.58646775113534
O           1.05911778936182    3.08410703379682    1.34915056685669
H           0.14122806058112    2.83046866081968    1.08583492924077
H           1.08498442575827    4.04209055995777    1.30786699206722
N           0.12567832067644   -1.53003850871265   -1.71315469867489
H          -0.08014815226013   -0.51293762661549   -1.82675503045077
H           0.36058458046389   -1.96235932247129   -2.60014435967546
H           0.91463172477367   -1.58678843543768   -1.02907522395954
