    26
        -50.45046697  Gyration_radius:  2.54277133676 Dipole_moment: 6.183
 S          -0.69871980570875    0.59612911378412    1.10215703597802
O           0.68407833576914    0.55940687439820    0.65993789683625
O          -1.37351335805923   -0.65880970855136    1.01850597906558
O          -1.42985618568987    1.67438872681998    0.28812976241952
O          -0.75518102751295    1.15295298948239    2.51836067468454
H          -0.19311761665823    2.02136948266429    2.44448120319303
H          -1.57237680494815    1.41311685304835   -0.71301056500364
O           0.30126566399611   -3.78150245114607   -0.32067168912820
H          -0.15197982057886   -4.02837709514759    0.48705712730322
H           1.00747229164377   -3.16002473626027   -0.05251725963879
O           2.06128334976718   -1.79049556801813    0.31034208115303
H           1.57140644038817   -0.99604394077824    0.57952434231940
H           2.50365968107230   -1.56330396003784   -0.51202781030926
O           0.81834470692231    0.01306994633661   -2.02387612034099
H           0.94839002011012    0.28910038805692   -1.10351605667455
H           0.30608373565122   -0.82093223653402   -1.96864067593496
O          -1.12312152813676   -1.77848052302730   -1.44189335674270
H          -1.34324418175520   -1.45658738363314   -0.55169810058066
H          -0.69894384268482   -2.64345388762076   -1.27528596204030
O          -1.63484896753583    0.95885058367894   -2.11272192916615
H          -2.03813914990244    0.08103641319573   -2.12324320515667
H          -0.67779812592131    0.78525723509615   -2.30814959340887
N           0.71726259292247    3.13691377344915    1.91399994995991
H           0.17563809771254    3.81181589538762    1.39034304219102
H           1.24155549180518    2.56154147967992    1.26340444993822
H           1.35440001732727    3.62306173580428    2.53100877913861
