    26
        -50.45739759  Gyration_radius:  2.43900321961 Dipole_moment: 2.402
 S          -0.66248033772753    0.35256173941065   -0.29352403215328
O          -0.55734044371749   -0.07542622923521   -1.67804614467657
O          -0.42310868605682    1.77125201697207   -0.13414584852945
O           0.27116162009211   -0.43059546414766    0.55391974693221
O          -2.08041129453888    0.07484877263677    0.24488576955135
H          -2.34699117775142   -0.88209849663321    0.05388308436593
H           1.62204840273866    0.15090954452472    0.50784879138196
O           1.63360805333152    1.36646441634469   -1.99365810628490
H           1.27750364406972    2.25952699216660   -1.98436458901882
H           0.84141084675361    0.78244585394342   -2.02716806831143
O           2.42601265175724    0.79969638544399    0.37421056255781
H           2.09857316993816    1.64456516987409    0.97601655933447
H           2.30270561980319    1.07421196081518   -0.60333943071515
O          -0.30605513751755    0.82899965884548    2.84779996481723
H          -1.24035817930753    1.03873146977570    2.79460829825556
H          -0.13075915163310    0.22160369672726    2.10562779234384
O          -2.69535322243387   -2.33773183037506   -0.36367708921498
H          -3.18777860963663   -2.28356363687410   -1.18563341030184
H          -1.78586244533236   -2.68226619782198   -0.60363414269017
O           1.29267123684592    2.60847128707919    1.64196696423814
H           0.88841384464600    2.11842407611031    2.38971252593710
H           0.57393300663288    2.59174980515413    0.96814167849173
N          -0.20926505657213   -2.82629120227462   -1.09103000031473
H           0.36068471759815   -2.77102485658285   -0.25567999155756
H          -0.17857905293578   -1.90270958044012   -1.52151091250337
H           0.21561599152858   -3.49275535892700   -1.72320998243552
