    26
        -50.45739763  Gyration_radius:  2.43934268971 Dipole_moment: 2.402
 S           0.00042059998452    0.65859470771546    0.46482786503955
O          -1.16753311193328    0.51271738728444    1.30743025738366
O          -0.18075954775315    1.66849713335714   -0.56392143957926
O           0.35978572187180   -0.64125223174827   -0.15515350567637
O           1.17375739778417    1.04227510049406    1.38894104186292
H           1.99296225158405    1.26807371780437    0.84045229923943
H          -0.84909158655719   -1.35265821578635   -0.59892489255678
O          -1.83512319826721   -1.66480210343723   -0.72416778434955
H          -2.10553196188727   -1.87995314873668    0.30663060723505
H          -2.29537898935547   -0.78428378275761   -0.96772293428884
O           0.46126584441509   -2.03082940175113    2.13461991874971
H           0.80462628208473   -1.42007111472923    2.78935113800864
H           0.58753003818656   -1.59115011738207    1.27373110069617
O          -2.18124056645882   -1.85320595711764    1.72727552933747
H          -1.33888262408702   -2.25670218696373    2.02730969632263
H          -1.98911021276466   -0.88955739455789    1.79968347073306
O          -2.60181332098106    0.75069468788859   -1.08774057391528
H          -3.08599906026225    1.03159597938017   -0.30600862077938
H          -1.72644663485002    1.19548354283876   -1.01226064888842
O           3.16801167897119    1.67913273484984   -0.09055868552578
H           2.84940341702511    1.30520993442902   -0.96343535428874
H           3.13625759983365    2.63423499210465   -0.17942532352536
N           1.92629616359167    0.75356955333819   -2.22380232762426
H           1.06189627498842    1.16128012838274   -1.86897054089079
H           1.83933924325907   -0.24834265211007   -2.10422828944795
H           1.99535831199164    0.95144872749580   -3.21393203304905
