    26
        -50.45100479  Gyration_radius:  2.5262956291 Dipole_moment: 1.965
 S          -0.88773117261463    1.29361119913494    0.32415951269935
O          -1.04020521558925    2.31093229530140   -0.66869177841407
O           0.48620414786313    0.98455848374733    0.64186640329721
O          -1.60237753792855   -0.00877632763394   -0.12420934216348
O          -1.65742830998965    1.65246908226767    1.58255483281956
H          -1.77317789766784    0.77182222411721    2.10022978691978
H          -1.15822437117780   -0.39489491919725   -0.95129680968558
O          -1.99659299575509   -0.60263847408364    2.64952292553627
H          -2.62401906239742   -0.99829471182219    2.03933403795306
H          -1.19932805782542   -1.20343435449940    2.63116508959850
O          -0.47846034138314   -0.85826244920596   -2.24886140596943
H          -1.13664702934266   -1.07596947546069   -2.91239819877351
H          -0.05496027239413    0.00622948364734   -2.55219046037058
O           0.41712229238502    1.49250788792197   -2.79577643740275
H           1.29826308414596    1.57520694256269   -2.37889527665477
H          -0.18078346442455    1.97966782959453   -2.20161871317483
O           0.04886689366510   -2.23632167460841    2.50495289372378
H           0.73287703914793   -2.01507864443977    3.13888231396445
H           0.47064827141773   -2.15452551630763    1.60452357055554
O           2.44996666279964    1.76458169993667   -1.03309503869719
H           2.68403222794097    2.66971358039869   -0.82091268739592
H           1.81729099249353    1.47943184854374   -0.34684794606635
N           1.24698572492733   -1.75326435541030    0.17311593522531
H           1.15911794560203   -0.74820803029841    0.30847544850901
H           0.75177975181171   -1.97496553268286   -0.68258500341900
H           2.22678069431311   -1.95609809151766    0.01859633738796
