    26
        -50.47327833  Gyration_radius:  2.3719212297 Dipole_moment: 7.406
 S          -0.10889314997384   -1.40061428875811   -0.53121647348738
O          -0.18517997996337   -0.73097575555649    0.78537871501485
O           1.25615287876010   -1.82210227402609   -0.80102717345368
O          -0.61469133548595   -0.51187504026250   -1.56801495230923
O          -0.98894327826349   -2.65871220155475   -0.45482469250148
H          -1.80952411099053   -2.35049237001103    0.03601672028118
H           0.15603560249156    0.99941624746307   -1.81185229296496
O           0.66806463504530    1.79956692420528   -1.56370872388800
H           0.19014417188407    2.13745576872637   -0.78340648803077
H           1.94455066235473    1.07225767236269   -1.06618045845569
O          -0.70174287170229    1.86071837385140    0.78583184162926
H          -0.55685166715641    0.88666253990927    0.79568001234362
H          -0.33373839186321    2.19161769215951    1.60670857670122
O           2.03018792231491    0.10327288992320    1.93585921007040
H           1.17790945792675   -0.24679507465080    1.58104281771219
H           2.40602541349767   -0.60723067039960    2.45780288086020
O          -2.83906205441846   -1.53444268132797    0.91730188917976
H          -2.18637455758766   -1.19520332306635    1.53898943785831
H          -3.07387974526630   -0.76520448506522    0.34057007611261
O          -2.86344110451184    0.59327042310551   -0.65659742327877
H          -2.12736987861978    0.20878212198122   -1.17257304450976
H          -2.47639155591146    1.33936836583749   -0.18407001825277
N           2.63648629773350    0.35587780111064   -0.65856538574580
H           2.65884843349574    0.44786721335961    0.38006627596531
H           3.55728909941007    0.42584026342294   -1.07697048366810
H           2.18438909671501   -0.59832612253404   -0.83224086315705
