    26
        -50.46407696  Gyration_radius:  2.36408466908 Dipole_moment: 3.025
 S           0.25180651495713    1.37434213832928   -0.09743970595998
O           0.41825628110133    0.42894616022715   -1.21250361346065
O           1.53237703072474    1.66500359573815    0.51598028235961
O          -0.69997258868297    0.83777350236402    0.87712014057740
O          -0.33660793567912    2.67681689313362   -0.68194098691511
H          -1.23243924264561    2.36587089399166   -1.01234804023523
H          -0.91407243264293   -0.77333217464219    0.85787629419467
O           1.54104231520054   -1.85632426427326    1.41007418571356
H           1.52218711665008   -1.05293502386639    2.06953626135558
H           2.06606830424581   -1.49636178350810    0.59007888358305
O          -1.23433595504254   -1.46198706504012   -1.91710451977637
H          -0.80159172085952   -1.99803852601621   -2.58349143580062
H          -0.62713264815148   -0.70529320965875   -1.73956738439173
O           1.33492393384322    0.29708822933375    2.72198567799247
H           1.52832388396609    0.91876240684099    1.97595565114896
H           0.39263348519393    0.41814937053850    2.88059401767681
O          -0.85799859612700   -1.75530456361052    0.74246331820510
H           0.52282602004486   -1.94893420749431    1.10547670164754
H          -1.06617192867273   -1.89479292955467   -0.20399616999827
O           2.65125592254604   -0.69773774853463   -0.54719650912918
H           3.12496642364371    0.05678667570228   -0.18162589816589
H           1.83896336932618   -0.29406579084320   -0.94585098816422
N          -2.55828017639372    1.41742972481417   -1.19943293912050
H          -2.46543478959940    1.03775199789554   -0.26253675070219
H          -2.43920273054638    0.65013971109591   -1.85028717819396
H          -3.49238984640584    1.79024598704773   -1.31181929448229
