    26
        -50.46633717  Gyration_radius:  2.38592120366 Dipole_moment: 5.208
 S          -0.35949159197604   -0.26221557434522    1.57979430941200
O           0.99978309674885    0.13547250290702    1.19940245512762
O          -0.47259423787940   -1.67556169876209    1.81369542046888
O          -1.28518382632219    0.10863923429029    0.34577119522700
O          -0.88378054031579    0.60362298184271    2.62822080116687
H          -1.17476653563438    1.82492266787112    1.88213416616067
H          -1.23088940511721   -0.58002389165656   -0.36640922668746
O           0.72623758064408    2.25895321412591   -0.29034453114580
H           1.01367654539293    1.54086393700557    0.31908221646840
H           0.59742139339112    1.78418775177968   -1.14234922034700
O          -1.19205771890863   -1.65635738010214   -1.57709055347284
H          -0.53712983374961   -2.30098144229231   -1.16203843051731
H          -2.01874758503359   -2.13408870624020   -1.65860285868181
O           0.61015555868319    0.44110470861799   -2.26901458435705
H           1.33975909641807   -0.09097687725266   -1.91098637368358
H          -0.14584769529181   -0.15764752810642   -2.28358010769474
O           0.48263529326277   -3.08132733463682   -0.23822602268071
H           0.17343121487820   -2.72843306136729    0.62311700242036
H           1.31019138491783   -2.61204531373194   -0.43227011197636
O           2.33428651352209   -1.08381111824698   -0.67032452767063
H           1.86841384582882   -0.64143832323302    0.08279625596033
H           3.27169665538188   -0.96652069854173   -0.51155579133715
N          -1.34268497167703    2.65524688627307    1.18810173573371
H          -1.35450607854686    3.54840454597007    1.67031280948517
H          -2.21885776487868    2.48504416054957    0.70379920305274
H          -0.51115039376714    2.58496637728089    0.47656476956496
