    26
        -50.47244667  Gyration_radius:  2.46188965387 Dipole_moment: 3.169
 S          -0.10197723084127    0.07905388664823    1.52929319423208
O           0.96825857721646    0.96115079282911    1.06797162992270
O           0.30489453517254   -1.31077812719218    1.48346751393062
O          -1.33568799483187    0.30535824241628    0.77472226644820
O          -0.37686060564564    0.47655064465891    3.00960626898030
H          -1.20934964425654    0.00660840651542    3.21464570802232
H          -1.23271302151033   -0.42954746790531   -0.80392660646047
O           1.16506084839560   -2.35938797371515   -0.70299778659303
H           1.38194976903966   -3.28101244227089   -0.55578440203069
H           0.82346779213706   -2.01597846759908    0.16762978305505
O          -1.01074564674915   -0.80046616069317   -1.67778195062765
H          -0.19051260630834    0.45765240956316   -2.54522213560046
H          -0.41025914416216   -1.53710659480629   -1.50662525217889
O           0.46906507470540    1.18026971740884   -2.66020804746462
H           1.57556299153792    0.58710788378462   -1.85858717538881
H           0.14827037542763    1.89172994888103   -2.05954903590282
O          -2.75442042857857   -0.64414428083322    2.77080743187081
H          -3.54079573836884   -0.11959052764402    2.93859068627418
H          -2.44993067900353   -0.41393397800715    1.87083347948686
O          -0.41382126118964    2.59329571517238   -0.56707063540190
H          -1.26584974821403    2.17883458945451   -0.39671930778993
H           0.17352028740143    2.19393748327697    0.09978549679913
N           2.20959277290403    0.11153652777672   -1.09629774316971
H           2.03324696468317   -0.90966922769269   -1.10669466627687
H           1.84770612823577    0.47064169497864   -0.17266916597201
H           3.19232764280440    0.32788728498596   -1.21721952816317
