    19
        -40.91687576
S           0.53240032024516    0.52901710573157   -1.64522231675486
O           1.74095674658525    0.54777846567346   -0.83125379697060
O           0.04351618778958   -0.83110938848354   -1.83012952252313
O          -0.48692134424503    1.43077613147791   -1.15431431677860
O           0.95082373436730    1.05204403274992   -3.07932295887655
H           1.62952839014727    0.42632616324535   -3.30917416705926
O           1.37575305016527    0.92503361230985    1.66188227451149
H           2.18965717374943    0.60457557434460    2.05673905181221
H           1.51805576996509    0.86889318964350    0.66827705563241
O          -2.27528512562294    0.73845019225221    0.53186614361657
H          -1.64639701554154    0.98116748239624   -0.20920572418537
H          -2.58590831884921    1.57416217884735    0.88693595849178
O          -0.05958021951015   -2.31267882025295    0.23877907651936
H          -0.76421634790674   -2.93154381251925    0.03488840851945
H           0.05442311405551   -1.75481501803618   -0.59032523011188
O          -0.63657873735082   -0.55158717477554    1.93446927789543
H           0.20452432555582    0.07075047606911    1.90747481961695
H          -1.38197319077368   -0.02131187877445    1.43159507613331
H          -0.40277851283640   -1.34592851189205    1.29604090050817
