    26
        -50.44842479  Gyration_radius:  2.48744888533 Dipole_moment: 3.799
 S           1.24075519433406   -1.08403973783264    1.06606422906033
O           1.71746719492709   -2.42515065577413    0.88587713543976
O           1.50335536511937   -0.19285334172311   -0.05327477959618
O          -0.17075802734265   -1.00904208686056    1.46241733230148
O           2.04722340897069   -0.49039742887539    2.30373977480240
H           2.76303887488391   -1.11071198619083    2.39428658210296
O          -0.12369630695540    2.99610900543194    1.52855635636739
H          -0.49950170808190    3.87479233860356    1.45442032419139
O          -1.42439282029974    1.14064173450507   -1.59253651743485
H          -2.25258058830361    1.07045709161640   -2.06896021586385
O           0.01889693851641   -0.87558986324356   -2.15545902916380
H          -0.35068451415565   -1.70788212306047   -1.76881855221003
H          -0.86480931864856    0.33185121437378   -1.87466989531658
H           0.75211292499507   -0.65722268196744   -1.54937575604365
O           1.06240881952529    2.35585134988304   -0.69448842541240
H           1.39915117529920    1.46697882815713   -0.46342587553317
H           0.34210042449302    2.19439343665959   -1.31557336267126
H           0.46418428844066    2.86248582104803    0.73223970148464
O          -1.53566388570948    0.96238819195732    0.95110177948616
H          -1.52613134916902    1.02634291309324   -0.07461920827203
H          -0.93713910448114    0.09696003052882    1.20458996524835
H          -1.01666563000301    1.77954183447356    1.29366720010153
N          -0.65988037242336   -2.97767892661516   -0.63866575372964
H           0.23563360967279   -2.95477847903754   -0.15264869030065
H          -0.82696860392982   -3.93323312981385   -0.93110465943906
H          -1.35745600968114   -2.74021333934125    0.05666034039716
