    26
        -50.44842583  Gyration_radius:  2.48747578337 Dipole_moment: 3.799
 S          -0.50551228892050   -0.27324741931735   -1.87624029044991
O           0.56585385715231   -0.87571087311006   -1.09842657862391
O          -1.40260169409539   -1.21259700050377   -2.48559077004643
O          -1.18493991465281    0.76747201378090   -1.09464322669634
O           0.19930421136207    0.50517925407404   -3.07291569973177
H          -0.01502388691857   -0.04050502095732   -3.82233943464482
O           2.28018579223136    2.47570493545695   -0.03172126137292
H           2.86762318638144    2.97818688641134    0.53508827867337
O           0.54963249480347   -0.00847666795295    2.35887214109406
H           0.16552601143743    0.01906468029777    3.23606583577584
O           2.65291843305470   -0.06888874330875    0.34919036475100
H           2.26510257043721   -0.24364590610247    1.21505113181350
H           2.01240235693344   -0.43683495200639   -0.29206475121166
H           2.57494113388019    1.52256944766079    0.01493228377817
O          -0.40287449920027   -2.00737021501673    1.10859792289278
H          -1.35949578741502   -1.87888184639610    0.89160147948958
H           0.04229172178707   -1.82588175812880    0.25920670077187
H           0.16754679045865   -0.84322642801223    1.90725435082100
O          -0.06120453459167    1.89397956978449    0.77034123393000
H           0.16124263403786    1.14111973114998    1.43342884244805
H           0.83865801246185    2.23530692458677    0.41236949429799
H          -0.55956923223369    1.42124786236631   -0.06654233619727
N          -2.78170401834153   -1.40220430169984    0.03336771559473
H          -3.02317299547696   -0.42633110951602    0.15937874842834
H          -3.63956557821231   -1.94023727049298    0.06750109568343
H          -2.40756475635675   -1.47579179304478   -0.91176331127113
