    26
        -50.44849480  Gyration_radius:  2.48581886426 Dipole_moment: 4.241
 S           0.10955425801591   -0.72502700718091   -1.82709290308424
O          -0.67997519624545   -1.71262331281097   -2.50410506041254
O          -0.61948273874081    0.40896771911362   -1.29529543152420
O           0.97698975024183   -1.31405738974779   -0.78997117496185
O           1.10294124521987   -0.12358471312755   -2.91452743795709
H           1.12689063108439   -0.81072783731773   -3.57250825512982
O           2.49795646142126    2.22790414601135    0.22377968959569
H           2.88737320139810    2.87969539371409    0.80884756272406
O          -0.53365441952933    0.87095593934276    2.18989978895813
H          -0.70405794024784    0.62451302881006    3.09986506054120
O           1.64344346140024    0.01655770527374    1.15163673616176
H           0.77183242203048    0.33337166368786    1.58757322330570
H           1.36081004154927   -0.58225536046618    0.28153532431644
H           2.09693710878285    0.85690281235211    0.77897034724075
O          -2.27721583682786   -0.23463167761133    0.69890435023974
H          -1.91494460843327    0.10180747421737   -0.14086411792804
H          -2.10913689943211   -1.20745829947985    0.63816861141488
H          -1.27416760798082    0.43868752194317    1.63480082772189
O          -0.05150499167319    2.68386741208840   -0.02080902480090
H          -0.42030162980085    2.41234988616949    0.82863016745922
H           1.57231778646101    2.53982332643628    0.01651697980207
H          -0.29910912110358    1.96970587464587   -0.64043883550626
N          -1.44481333203824   -2.70915137199366    0.08804614898181
H          -0.52319246274890   -2.91818167264358    0.45342395280384
H          -1.30631708480112   -2.46414756216905   -0.89142333987180
H          -1.98917250799714   -3.56326370926890    0.11643679990580
