    26
        -50.44849422  Gyration_radius:  2.48618715875 Dipole_moment: 4.220
 S          -1.00550627494093   -1.01746953365659   -1.35377179390695
O          -0.97271634360550   -1.13096414821468    0.09083191213223
O          -2.29948419866007   -0.79947416106115   -1.93301583100025
O          -0.00937855873466   -0.03382849381714   -1.81696529095766
O          -0.50016521578373   -2.42131562644477   -1.90626879389094
H          -1.03533699753644   -2.53868732568687   -2.68432203112788
O           2.90067017388604   -1.64454296438383    0.38086266792450
H           3.71042331908654   -1.65119889494529    0.89373864729060
O           0.87526676256635    1.29787795408062    1.84069073251124
H           1.07602757394435    2.18763969219992    2.13362339553738
O           0.85107580604671   -1.59791123443539    1.98245491460156
H           0.11992494112370   -1.60851157223649    1.33391730161396
H           2.15083322823453   -1.80696568979574    1.01985511275129
H           0.85223706209955   -0.70076483094148    2.33798705947709
O           1.88741599758907    0.55990623043829   -0.39016357400835
H           2.36880200885933   -0.31911713931794   -0.17488394833535
H           1.05040431287463    0.29200964824527   -1.03948275673863
H           1.48308769370276    0.88637654518158    0.49323790798364
O          -1.61691499277196    1.13909495186628    1.34354551433668
H          -1.59806226819572    0.21217104495619    1.04319103284739
H          -0.13472004989979    1.26928654919885    1.68961339386697
H          -1.83359629380926    1.63550564009842    0.51584578455646
N          -2.04892766966361    1.96638438403132   -1.16981336283968
H          -2.31137263633200    1.03007683798459   -1.47481632428392
H          -1.19354146956846    2.18857057535972   -1.66533683299716
H          -2.76644590046735    2.60585157126308   -1.49055483731971
