    26
        -50.44849473  Gyration_radius:  2.48575026655 Dipole_moment: 4.244
 S          -0.68623625147300   -0.53656082282310   -1.76567003977281
O           0.20736044627292   -1.21209445424307   -0.84628232648709
O          -1.86217123685426   -1.26606858614684   -2.14255646278741
O          -0.99934017397391    0.82027030489550   -1.27938425305163
O           0.15416208841387   -0.32171003054065   -3.09928634799748
H          -0.50767081322336   -0.41618664818310   -3.77648778695073
O           2.83695001059488    1.67815669206888   -0.62067404784181
H           3.57739301839120    2.10839555209927   -0.19007143468289
O           0.71265788356335    0.29521239204558    2.28920758890860
H           0.43951516843435    0.61635302558665    3.14947347862204
O           2.56445323268077   -0.73515609101879    0.31188113484747
H           2.20952980101523   -0.60355876526828    1.19958749267936
H           1.80336408330667   -1.04283103291891   -0.21840545667984
H           2.87727983349467    0.71213634845959   -0.37121108223105
O          -0.85151703214208   -1.58499554412724    1.57893100931202
H           0.08527765840222   -0.47795278193036    2.06188021268582
H          -1.73941276795135   -1.21974825411231    1.34091340661843
H          -0.43678502847246   -1.73373670155907    0.70981892611607
O           0.48519423716236    1.91919011060398    0.32431970652168
H           1.41432829152371    1.92912295190401   -0.10830085525934
H          -0.17844623366137    1.44070054746931   -0.40202395731448
H           0.55193955123840    1.28463675678233    1.12596827902058
N          -3.00239293670069   -0.51097725255316    0.39203747158462
H          -2.93990528162601    0.49580659786471    0.29695709926182
H          -3.97430203767255   -0.74598349178222    0.55555454327763
H          -2.74122553076098   -0.89242085257599   -0.51617628840837
