    26
        -50.44849475  Gyration_radius:  2.48564693539 Dipole_moment: 4.248
 S          -1.70947963284555   -0.89491224797697    0.39501417780042
O          -1.12750711591728   -0.46427302765114   -0.86050416852559
O          -2.05389159986229   -2.28470172783055    0.47876215123449
O          -0.87650563818643   -0.45344071414442    1.52907171020040
O          -3.07264014888546   -0.08641320586711    0.53416442644523
H          -3.63928920189942   -0.71321341309297    0.97178749616829
O          -0.65585772978226    3.28494122521196    0.16481766324152
H          -0.25960958155321    4.14774461344988    0.03309146023247
O           2.15115445761646    0.80114999638742   -0.75302929353188
H           3.09465977881890    0.74658434849183   -0.59606695107377
O           1.28065631930977   -1.52009071891243   -1.33520061861104
H           1.27988609587400   -2.09567861174988   -0.53076538591972
H           0.34584859180224   -1.25682565827414   -1.41532392023020
H           1.85248036634620   -0.13892587931668   -1.01857170481769
O           0.68221035754289    1.41162133914462    1.25116868730756
H           0.12126933022275    2.20537257853548    0.92516252041474
H          -0.01976124869474    0.58505105872357    1.38839012970258
H           1.29222794919666    1.15445806760297    0.46888856142165
O          -0.28471312853283    1.81998410036614   -1.95247084868133
H          -0.64997064924410    2.82428293931238   -0.72114717085765
H           0.65430862857585    1.59951273813297   -1.92298452374354
H          -0.74251848689717    1.00014994250095   -1.68111346234507
N           0.73690483604625   -2.82614629030346    0.94224862714550
H          -0.26508472760447   -2.81502953414232    0.75660597145043
H           0.87101175505553   -2.25435633290954    1.76787892298686
H           0.99421040350148   -3.77684557568427    1.18012554259563
