    26
        -50.44849472  Gyration_radius:  2.48570607247 Dipole_moment: 4.237
 S          -0.60930478469349   -0.95120628228808   -1.61167063366672
O          -0.03226572987772   -1.06966531603560   -2.91931650617800
O           0.22890294607435   -1.38343047810395   -0.51124713220180
O          -1.14487122754715    0.39864791383524   -1.35437669575527
O          -1.87388536440853   -1.91649748231515   -1.59125895573429
H          -2.07348391175375   -2.01248453967097   -2.51675701546650
O          -2.35722376298262   -0.57655907860043    2.31542575285282
H          -2.57409295199991   -0.42348337541514    3.23646990647828
O           1.11530306091812    1.04813548184287    1.87005897583422
H           1.53577631200804    1.85632808370147    2.16640672160138
O          -1.25705178363795    1.25685587717760    0.93358256496537
H          -1.80429682903869    0.57417747199358    1.46757554856936
H          -0.30156109249258    1.20412686291804    1.29988793654092
H          -1.22243741276374    0.87733036445240   -0.09154027830479
O           0.01808917021138   -1.62256203082117    2.13828384664890
H           0.61200128926018   -0.89142425738749    2.34797699797330
H          -1.52926103020599   -1.13452725251632    2.30090154695678
H           0.08950810815968   -1.73257672361162    1.16973550037265
O           2.38419872839217    0.15391628866910   -0.14902420527894
H           1.79866730807289   -0.60990138839069   -0.30172277023723
H           2.21557803169321    0.72319812550164   -0.94011837887672
H           1.67539719986228    0.70666001268375    1.08723664171306
N           1.43927418831825    1.34285224934432   -2.35872687244022
H           1.97842321523105    1.74638848058336   -3.11575736228121
H           0.65879012677234    1.96131527681241   -2.17179213837600
H           1.02982617645484    0.47438571564885   -2.70023298571823
