    26
        -50.44772990  Gyration_radius:  2.51301669906 Dipole_moment: 2.775
 S           0.40508435036362   -0.72420832633437   -1.94338191550797
O           1.81861824600887   -0.41794564987580   -1.66259794015892
O           0.06992692504879   -2.08015093146229   -1.57868043137933
O          -0.48288323088955    0.27198335947643   -1.38799154653104
O           0.27103031867777   -0.62446780851437   -3.51569271313642
H           0.81625022675775   -1.35533303804165   -3.78646311437355
O           1.94027661492099    2.71712923958204    0.69266815626314
H           2.12718618613059    3.21808404656450    1.48806781214309
O           0.42193537441670   -0.45793316870875    2.07080878178954
H           0.64604851257753   -0.89098303954972    2.89595237896174
O           2.41814506681268    0.21439331731142    0.62387241050680
H           2.35646693060576    1.23850778053804    0.62050911420699
H           1.63963661659589   -0.10731439330796    1.20824839849993
H           2.18665117860116   -0.08771582474084   -0.39808805377275
O          -1.05409549080946   -2.08166949938050    0.82133311097542
H          -0.63020854102520   -2.22243278300898   -0.05155512686879
H          -0.17892438964519   -1.12671346320599    1.56450984373306
H          -1.87574425836015   -1.57680711150628    0.61179258850643
O          -0.52060969184669    1.86042057466232    0.77272561641605
H          -0.43994911941787    1.14666116778348    1.42055761540908
H           0.95438954041229    2.56148090315897    0.67219306133872
H          -0.58646114824639    1.40417228196827   -0.08817950383502
N          -2.98203749366247   -0.41531400238725   -0.09274515445887
H          -3.30672625244207    0.39273690954067    0.42373078249913
H          -3.75571186734492   -0.76037987232795   -0.64620242741803
H          -2.25829460413129   -0.09620065762030   -0.73539172423177
