    26
        -50.44842310  Gyration_radius:  2.48741215283 Dipole_moment: 3.794
 S           0.02350128004144    0.88020865447706   -1.75332260827473
O          -0.33648242930674    0.40011187867810   -3.05648332439349
O          -1.04060548305922    0.79965459171635   -0.76447845110013
O           1.25984884062220    0.28865861168618   -1.22783422260263
O           0.35132341455220    2.42858114765547   -1.92614898214129
H          -0.03761626656304    2.62464941288281   -2.77205009520528
O          -0.28928508535366   -1.28923277411366    2.02970019265725
H          -0.07570327280621   -2.12629067494507    2.44381825640898
O           0.99477311796253    2.34471432955697    2.20178798513071
H           1.13178485959531    2.50289942420162    3.13722047109711
O           1.66719420162572    0.11443897027589    1.18360977174338
H           1.51052105495427    0.20877055661024    0.11695342071376
H           1.51080181740197    1.04867936784959    1.58011187150921
H           0.90282861865480   -0.47714888519117    1.53298343921745
O          -1.53277368302311   -1.74145302671895   -0.14129383703459
H          -0.81620918197685   -1.51732708392703    1.18269311370139
H          -1.59748092635313   -0.81023538464722   -0.42657377954419
H          -0.94134256315260   -2.14438256396337   -0.82450336375801
O          -1.39251882625576    1.39339403257059    1.80938184948282
H          -1.35159684133786    0.48908805632954    2.14288047798621
H           0.02261233351890    2.15161191436029    2.07813292594640
H          -1.38716012250505    1.30268519186958    0.83540088379221
N           0.18551612681769   -2.27282549954952   -2.12732043071209
H           1.15044455671464   -2.15932405970656   -1.83994663147082
H          -0.06252456735969   -1.41183682371793   -2.61299178011783
H           0.15014900659114   -3.02808938425353   -2.80172715303439
