    26
        -50.44246370  Gyration_radius:  2.6276829957 Dipole_moment: 4.226
 S           0.22507895867218   -2.51649979875195    0.76455544363417
O           0.07896701402032   -3.19999431177635   -0.49812850864011
O           1.51567375472364   -1.80618419107736    0.85250606976498
O          -0.86800698233145   -1.65083696837125    1.12810114865322
O           0.29494266049797   -3.65066297184401    1.87778102952025
H           0.83367589049948   -4.31936774537284    1.46542183604856
O           1.87165476656997    0.68899818458992   -1.75641943588850
H           2.62989855742535    0.14468310853798   -1.97580648966022
O          -1.14567935468670    1.07841232020817    0.05564350130483
H          -1.02415504303834    2.00831542588597   -0.24165814901356
O           1.23815989177224    0.62140981405714    0.72788920891298
H           1.36469774257793   -0.44272450109631    0.88325767625065
H           1.63401136336997    0.76333610853587   -0.19766323407788
H           0.21414052304020    0.76499769503845    0.55444411694569
O          -2.35377334494600    0.25755285898721    2.26463821628350
H          -3.24834108749218   -0.08614687871514    2.23782569075597
H          -1.77960055488726   -0.49779354834029    2.02818423886117
H          -1.71404453609191    1.02131264582017    0.85268075102811
O          -0.21886820654561   -0.87271950710047   -1.75675519267625
H          -0.12381913926560   -1.77840994583385   -1.40113161577922
H          -0.84383899554929   -0.41955628278436   -1.17417629933474
H           1.07239149037224    0.10643254567876   -1.90300193027606
N          -0.08388875797882    3.28922742919660   -1.05035580291175
H           0.59704751581069    2.72939037524877   -1.55344375951443
H           0.42561334162419    3.92809796172986   -0.45248760955853
H          -0.59193747817127    3.83873018753488   -1.73190089064420
