    26
        -50.44721208  Gyration_radius:  2.51046732997 Dipole_moment: 3.931
 S           0.75595671341003   -1.39953718793228   -1.41039590813545
O          -0.15258707634682   -0.30131190402726   -1.70306773557092
O           2.06197534246546   -0.87924704243077   -0.96593496933786
O           0.20725042135806   -2.38117634054076   -0.51959827180555
O           1.06345813915962   -2.11018792994684   -2.78675313813272
H           1.54631648262904   -1.42586636700174   -3.23781641372534
O           2.13392356174353    2.61533405841635    0.39535512902179
H           2.08541948350691    3.34831244810843    1.01096564334960
O          -0.19370025664462    0.28787799473117    2.14479205765450
H          -0.25344660550586    0.24318393971466    3.10027488924234
O           2.18931022720036    0.20587628146411    1.22372862675047
H           1.24401532566291    0.16553644220340    1.61955880785537
H           2.16289860614596   -0.33573294312067    0.27795740152442
H           2.31697745214908    1.18096824622843    0.93221363818853
O          -1.61427238173838   -1.59324482090356    1.24498198158195
H          -2.24297711313643   -1.16347591442781    0.61408638696852
H          -0.97897432379505   -2.05849719644893    0.66375603591403
H          -0.77981241107688   -0.48805982127685    1.79664866948893
O          -0.30107905351875    1.88631701685785   -0.18454230645477
H          -0.25574531847649    1.15448956949680   -0.83441683483281
H          -0.54763344703503    1.46735092487764    0.65123335038121
H           1.21044063967871    2.47203057843523    0.04500814035433
N          -2.88998923469156   -0.33431103151643   -0.76783962270472
H          -3.20365551260441    0.62683380148524   -0.71261057515026
H          -3.56097892802181   -0.84646197864736   -1.32605725360950
H          -2.00309074638806   -0.33700082502631   -1.27152772928494
