    26
        -50.44246353  Gyration_radius:  2.62805564041 Dipole_moment: 4.232
 S           0.07497396561122    1.38724478626293   -2.24485948881629
O          -0.76589590507416    0.57871573647071   -3.09454935384902
O          -0.70958849108815    2.08121131234621   -1.20511432313405
O           1.20820219737528    0.70732218537701   -1.67064918293670
O           0.66035008019160    2.54257664258351   -3.16853216653077
H          -0.08602692552592    2.77949362548871   -3.71095267294022
O          -2.47138109420136   -0.24253992370538    0.95104757254535
H          -3.22836182731335    0.23847245935520    0.61203949274961
O           0.98208305204859   -0.99381366550253    0.72282122260332
H           0.79851021953692   -1.38503946812209    1.60664980254316
O          -1.15426468656781   -1.15350741836278   -1.10958443299309
H          -2.06745221250287   -0.69945044285991    0.15888883558620
H          -1.08078300826606   -0.58859050475852   -1.90402562557795
H          -0.25384633314064   -1.26434538544203   -0.77439216025904
O          -0.31519430943325    1.14467570752517    1.02025901017021
H          -0.42249845105721    1.63053111181220    0.05824744585774
H          -1.21923674860393    0.69810825774665    1.14963930147259
H           0.31551687488030    0.32362386776565    0.85657151227196
O           3.27597088142754    0.02708559388910   -0.12004535518135
H           3.85306098489848   -0.47614845887776   -0.69698804444006
H           2.61564259673865    0.43978758614645   -0.71132381289829
H           1.93146079150061   -0.77551525030660    0.61054173185969
N          -0.28074457916774   -1.71181619056811    2.98719634765204
H          -1.18061118056563   -1.48403437316791    2.57657759195997
H          -0.16061555204474   -1.12847683420533    3.80613026465416
H          -0.31927030965565   -2.67557095687843    3.29440648762997
