    26
        -50.44246372  Gyration_radius:  2.62778525363 Dipole_moment: 4.227
 S          -2.24221368121386    0.67667386752474   -1.21786894601005
O          -2.13926688180554   -0.09937411034711   -2.43039081106742
O          -2.50060350649643   -0.17977184054693   -0.04410392186159
O          -1.14787764652793    1.58030694670320   -0.96832406781303
O          -3.54548312896194    1.57516628086198   -1.37518483372111
H          -4.16431681422112    0.98002989330503   -1.78778886209198
O           1.40115303347306    0.68669398434613    0.20669444614465
H           2.11951100340257    0.29065635597939    0.74984634202429
O           0.14183393077566   -2.61223961083790    0.46889077180981
H          -0.59029257900237   -3.22026608636138    0.35208142484669
O          -0.55112826664860   -0.33581467129095    1.42587387502891
H           0.20313770693189    0.19480481709025    0.92695323247707
H          -1.44920775019080   -0.19566257010562    0.83721644416765
H          -0.29997448066891   -1.30097502221113    1.22885851744222
O           0.60668698646676    3.21312409511095    0.21380568871039
H           0.87810422804554    3.81710247923264   -0.47949259209648
H          -0.16584812661998    2.73513715773193   -0.14789345792836
H           1.36139719177482    1.66112627805908    0.30864644239279
O           0.20754163054251   -1.07755348828706   -1.64044147003723
H           0.23645332569160   -2.13605871482565   -0.40522126209918
H          -0.63978111996575   -0.78329196044053   -2.02935308178497
H           0.65192675183624   -0.27737897184678   -1.32803940039711
N           2.83191512228562   -1.06056023667046    1.66877395037058
H           2.75865367333358   -1.01457518341393    2.67763760345324
H           3.79013076611548   -1.28944831939955    1.43626073423155
H           2.24754863165027   -1.82785135936423    1.35256323381387
