    26
        -50.44246355  Gyration_radius:  2.62800209636 Dipole_moment: 4.240
 S           1.96829531218046   -1.44316594824858    1.00582726801891
O           2.24534157039045   -1.04905030610345   -0.38925170606064
O           2.53832095798954   -0.50787961746236    1.94553604505922
O           0.56941486890996   -1.73255712547592    1.19428315403021
O           2.74642307053295   -2.81470357806029    1.21506736214914
H           3.64878861363791   -2.53169109122384    1.32946754000934
O           0.87739966498729    2.21638856989294   -1.17755523921486
H           1.80124518083277    2.40294009458524   -1.35375208657497
O          -1.55629878855973    0.05314084906928    0.21411706428657
H          -2.15171983565240    0.64041680623413   -0.30410893208998
O          -1.96707125843712   -2.49053180818555    0.82681948713086
H          -2.27202320720521   -2.73949862399933    1.70096904498143
H          -1.96964556231284   -0.81735324075694    0.39574694434424
H          -0.99769899286606   -2.39323683375313    0.90937255216481
O           0.23705202491558   -0.24207530522714   -1.52971231072984
H           1.10935440618835   -0.68842827046606   -1.06828607218179
H          -0.50662747190349   -0.23951836403261   -0.79111771763833
H           0.48873299809680    0.74140932977512   -1.58392470974540
O           0.72722260669691    1.32340320670131    1.26981664524276
H           1.43430494756849    0.73151509275013    1.59462284699520
H           0.82626946611606    2.01585344297258   -0.19938751920200
H          -0.08476437517176    0.79792500563730    1.27115418409246
N          -2.43410819891231    1.97309426470802   -1.45313747173047
H          -1.51591239849321    2.40556646320764   -1.46453303258679
H          -3.09940796170844    2.67458356335811   -1.15327842586116
H          -2.66288762781522    1.71345341410572   -2.40475491489875
