    26
        -50.44246357  Gyration_radius:  2.62798909293 Dipole_moment: 4.234
 S          -0.42813307222412    2.39392984841874   -1.02673886513774
O          -1.40066982005650    2.08012238499695    0.03813531277399
O           0.70841199129747    3.11914775601924   -0.51194786241041
O          -0.11259826105103    1.22095799662046   -1.80179870256312
O          -1.18689299921146    3.39255459213274   -2.00524206254541
H          -1.14196953030208    4.22198346340680   -1.53890700645630
O           0.56017473008115   -1.36029547701728   -0.55556539879947
H           0.59862845150781   -2.18544839396408   -0.02117939023256
O           0.05989622420864    0.04094572083768    2.65816264861109
H          -0.19270901707847    0.79706015584091    3.19089490663499
O          -0.24237001384242   -1.12851605156368   -3.06897466040808
H          -0.34451010264614   -0.22243142085993   -2.71607198145152
H           0.39516230204370   -1.05262035375419   -3.78097005888628
H           0.32577843325424   -1.54165048586276   -1.49030317348890
O           1.57872071055631    0.93115813991019    0.73172915677028
H           1.35535628085060    1.78889223165712    0.31930720958567
H           0.75033312019754    0.38119439861042    2.02016346290193
H           1.48002941799707    0.26526324520987    0.03727443612875
O          -1.41807102860339   -0.30305791664716    0.59048703303790
H          -0.98300235260561   -0.24066549445910    1.50719609170215
H          -1.49020779363674    0.73424068744503    0.28735263930796
H          -0.65056181808351   -0.71748095778981    0.00928508180256
N           0.46117180896620   -3.06583241508487    1.52254442078437
H           0.47995910253538   -2.29208305676528    2.17920039671191
H           1.23544843350478   -3.67769153687119    1.74785209614357
H          -0.39737517765523   -3.57967704046364    1.67811427945842
