    26
        -50.44246365  Gyration_radius:  2.62793688108 Dipole_moment: 4.232
 S           1.05343083921937    0.64334212995892   -2.33373369774056
O          -0.12652074630332    0.69021307153469   -3.16332883178813
O           1.09830619494911    1.77535806511757   -1.38785937266675
O           1.28221462975733   -0.60737156547574   -1.65580406192994
O           2.29091602811624    0.86341464445045   -3.30876659866240
H           1.97516381145190    1.53721801040135   -3.90355961676274
O          -0.10310271125930   -1.32493638147410    0.84275661351126
H          -0.50021522147102   -1.36159578863796    1.74213749396824
O          -1.76565378474793    1.80205941771881    0.83914932473368
H          -1.89846563279838    2.65785566880027    0.42772171794049
O           0.68965453211674    1.06446576882892    0.91710870900668
H          -0.23324307055549    1.47475840750960    1.03219220036018
H           0.46959074972785    0.04180844152773    0.84616071847982
H           0.96879130302407    1.37595165870690   -0.08186982353330
O           2.14471971853035   -2.47720079391429    0.04745418392899
H           2.12641908018064   -3.29072396751486   -0.45946635932381
H           2.01521162102572   -1.76215902517537   -0.60680630849001
H           0.67698661992104   -1.91392280546011    0.76390501386581
O          -1.65120017817692    0.03746536964310   -1.08009727305458
H          -1.19180872358960    0.27816648035820   -1.90877427055376
H          -1.14402220005653   -0.68939184977904   -0.69300185784480
H          -1.86912231098303    1.13245873089668    0.10395498240563
N          -1.41897825321289   -0.63299170744995    3.08487640539273
H          -1.83597450535647    0.16316619715894    2.61320759919661
H          -0.88073071774512   -0.27940517358585    3.86627950900219
H          -2.17236707176957   -1.19800300416806    3.45616360055496
