    26
        -50.44721204  Gyration_radius:  2.51051537386 Dipole_moment: 3.931
 S          -0.07604441809194   -1.97267377757371   -0.78827265966457
O           0.87899808909150   -1.43038743663690   -1.77195752561661
O           0.32793937426813   -1.60960605037859    0.56162408538935
O          -1.44078566105754   -1.64864379246778   -1.08944238357162
O           0.08832222949018   -3.53915874714920   -0.90286393448002
H           1.03313372510027   -3.62561399239056   -0.83409077227125
O           2.98279402580865    1.47874532056777   -0.68456830132466
H           3.26470011668040    2.37911773526318   -0.51587662586585
O          -0.69787415006708    2.01154049173565   -0.43159997127697
H          -1.12097176185863    2.81971289317763   -0.72552709498052
O           1.28779826425075    0.80145091240505    1.17695961867145
H           0.52807132198015    1.33434694739216    0.90558916647210
H           1.01728777647376   -0.12751759790735    1.02258361013896
H           2.48672103029358    1.17545919999919    0.12662816074506
O          -2.54956416416568    0.40767989633705    0.17315270975384
H          -2.31562741452861   -0.37467267847553   -0.36641247341839
H          -2.35348842695218    0.12436561681324    1.10010071867814
H          -1.47020101979516    1.36995671546126   -0.18971900427126
O           0.93171335713652    0.99186899771634   -2.11638125484376
H           0.87143337556634   -0.09270470215207   -2.02463849459064
H           0.22023200206804    1.38630717291918   -1.49176482085576
H           1.83028378507849    1.21516331729872   -1.67486062002978
N          -1.59329451726406   -0.60840631786042    2.47908954085647
H          -1.08436612436827   -0.05937112342471    3.16085225465357
H          -0.90569191404621   -1.11257484516112    1.91931475102051
H          -2.14151889097768   -1.29438415549808    2.98208130091191
