    26
        -50.44246368  Gyration_radius:  2.62777378831 Dipole_moment: 4.228
 S           1.94877286736463   -1.69087368638389   -0.55838345108260
O           1.79795019371593   -1.81882550819079   -1.98802153240419
O           2.47410656760298   -0.36375375085169   -0.18333537038711
O           0.78125053624295   -2.02365136744937    0.21788309783799
O           3.08290638413253   -2.72395794013681   -0.13767450445261
H           3.71864256652135   -2.63856103442562   -0.84192158114193
O           0.28468367559089    2.31794930961696   -1.26865138177923
H           1.07267900852338    2.57384681382215   -1.75128263835066
O          -1.44409314857724   -0.13422543127040    0.61185110474995
H          -2.02368295695006    0.63869581435215    0.79776088852596
O          -1.01322394428402   -2.21789601409262    2.18865739501350
H          -1.45384368451659   -3.05468851364621    2.03135527016034
H          -0.23582075605049   -2.21980397086532    1.59556045231803
H          -1.52682187313648   -0.82666518348788    1.30120118483226
O          -0.26754356300144   -0.13944743030194   -1.95056050295307
H          -0.77438624284603   -0.47757086325885   -1.19948104357993
H           0.01184998579451    1.43499283739136   -1.65032270515626
H           0.47293081950198   -0.76420918514744   -2.08175016010564
O           0.77309149431628    1.02695379508081    0.89292819943945
H           1.55864087903613    0.38825170120772    0.50894914905385
H           0.63503766335604    1.69415523307842    0.13839251600095
H          -0.10599291810357    0.45731813838659    0.84749746420634
N          -2.41592596443544    2.37351008816413    0.67794090723153
H          -3.35496444341342    2.58817999246978    0.36693267853944
H          -1.77657139846199    2.65743983937555   -0.05746854910989
H          -2.21967174792237    2.94283631656570    1.49194311259806
