    26
        -50.44246358  Gyration_radius:  2.62798953039 Dipole_moment: 4.233
 S           2.00075187888976   -1.52595874948792   -0.79756791987079
O           2.54588392234762   -0.72418224245903   -1.86651327095596
O           2.27128758118437   -0.92683015175732    0.52386624621291
O           0.60883409064261   -1.87253202355421   -0.93378625803855
O           2.81126196330079   -2.89459780544632   -0.81006834525211
H           3.70555660638024   -2.61067601797909   -0.97439252720387
O          -1.55753498422954   -0.01546431963300   -0.21079801932478
H          -2.16617938662376    0.62585385344133    0.22071764732783
O           0.82582039264459    2.38463468996329    0.83873657358947
H           1.74528132575265    2.61655642116417    0.98072981117926
O           0.24644448364755   -0.01141577572805    1.54706350342879
H           1.12852376051208   -0.49906366181580    1.15002964590835
H           0.47397626465420    0.97526362668133    1.45682623427419
H          -0.49868826688415   -0.13378387638795    0.82004007328269
O           0.69210839787113    1.14226942538120   -1.45232309163172
H          -0.10672101007757    0.60284878593461   -1.37265335985514
H           0.77743490264251    2.04310654441374   -0.09964579899893
H           1.41265955416478    0.52666576445672   -1.69218000530341
O          -1.90723561111167   -2.63037205160300   -0.44565819663635
H          -2.20791216283178   -3.01080014491116   -1.27270569380679
H          -0.94076462685083   -2.52289079921378   -0.54697510277686
H          -1.94958037382672   -0.91282544512937   -0.26190650618805
N          -2.47872066912877    2.10325500208803    1.16740156865508
H          -1.57210619635889    2.55589815659320    1.10927357112707
H          -2.69719037835697    1.97806838273842    2.14816594817505
H          -3.16319145834917    2.73697240225544    0.77432326267954
