    26
        -50.44246364  Gyration_radius:  2.62793840886 Dipole_moment: 4.236
 S           0.93395980990576   -1.62603902246985   -1.85799871385761
O           0.76532051448603   -0.81560596357699   -3.04015126519472
O           2.01566258042377   -1.11143266171126   -0.99581138206659
O          -0.26589371768170   -1.86469359213839   -1.09667898276710
O           1.44082544475689   -3.04728255156323   -2.36160877969390
H           2.06000713299360   -2.82055389722777   -3.04908642281057
O           1.36753982277970    2.27665513345951    0.12488094607550
H           2.19237513754132    2.43529196540841   -0.33753488665876
O          -1.34704308285956    0.10668728247670    0.80436761215442
H          -1.49855320082833    0.76912402924032    1.51583431609756
O           1.15015563001329   -0.10245379607005    1.05794600819766
H           0.10772037967723   -0.13627968381805    0.95335568842767
H           1.54967138094999   -0.63270749788966    0.20225584964054
H           1.35623901573355    0.86852140153630    0.83816661100455
O          -1.98670344861752   -2.46282010996556    0.85881254398733
H          -2.76680114406163   -2.78273549354801    0.40248860695640
H          -1.28781740175576   -2.41961724097183    0.17642105994337
H          -1.76084224038566   -0.75688694081480    1.01555787912963
O          -0.26362645316099    1.15676940299792   -1.57666369396574
H          -0.88367989287594    0.67294005985585   -1.01374356613934
H           0.71869594102212    1.98417955684694   -0.57722657958761
H           0.09681177830804    0.50322351962495   -2.20809606107231
N          -1.02733320152289    2.21846575065161    2.43987644941569
H          -0.59971971111921    2.06253196910572    3.34439046469806
H          -1.74954464672918    2.91857671189312    2.55352629518183
H          -0.31742644698631    2.60614164866400    1.82672000290902
