    26
        -50.44246355  Gyration_radius:  2.62796200757 Dipole_moment: 4.236
 S           1.46403763589517   -2.19001380967642   -0.16860403727137
O           1.65552880044004   -2.28129134404177   -1.59607861638446
O           2.23042048604205   -1.07036233584597    0.41227735970367
O           0.09171767178837   -2.16066613073367    0.26956289770516
O           2.10924906233300   -3.50491552483292    0.45198970850984
H           2.90698794896638   -3.61117946065448   -0.05763211133436
O           1.25044626167116    2.12554519142575   -0.99497297619869
H           2.17559809617194    2.13684055536119   -1.24661858899620
O          -1.52773134343275    0.29724806064242    0.22213730744019
H          -1.89249555614153    1.20668342958297    0.31052602764690
O           0.77660759864312    0.76328669063196    1.12588024935666
H          -0.18494533018885    0.47438587969588    0.82451008553165
H           1.42023180935781   -0.07956238509688    0.90566519118324
H           1.03291376263696    1.43649621433772    0.40851776244414
O          -2.13788798048396   -1.81302735553495    1.70171102697827
H          -1.98033193708072   -0.33687327102266    0.81765281381377
H          -2.74061318263185   -2.48236389766485    1.37337129459055
H          -1.26497191961762   -2.04562159997510    1.32771590251460
O           0.21893890415759   -0.06888207375932   -1.95947853086979
H           0.84685782682177    1.35795246098083   -1.49241376891302
H           0.75796314991090   -0.88432156778396   -1.94451781911960
H          -0.53907258231888   -0.23714974541855   -1.38281978083950
N          -1.73384476423344    2.97943285547871    0.21693918612440
H          -1.59896773787103    3.47134714097994    1.09168363219749
H          -2.46198536542260    3.45655613201895   -0.29960550552925
H          -0.87465129541470    3.06045590092038   -0.31739872027728
