    26
        -50.44246373  Gyration_radius:  2.62797421663 Dipole_moment: 4.231
 S          -1.74870454452344   -1.28788335912482   -1.50032215045541
O          -2.35785079211902   -0.82293608239932   -0.23900062468774
O          -1.94444070336938   -0.33649711250677   -2.56772298805184
O          -0.38722043620819   -1.71116861278540   -1.29250272149071
O          -2.57011200760531   -2.58802401594283   -1.90724431956048
H          -3.37030870568484   -2.22681597957771   -2.27680757142383
O          -0.94591458501435    2.32534311415338    0.87637834594119
H          -1.86001433647655    2.60140245649569    0.78941078768225
O           1.55233605512410   -0.09794776531060    0.22401396785670
H           2.03740702635935    0.44917110869455    0.88234159007706
O          -0.67024128111683   -0.16897601556229    1.40692776191190
H           0.24405359437595   -0.25930432833256    0.90219395784678
H          -0.82952700376615    0.83470725213709    1.38387748002095
H          -1.42205458220513   -0.54758047869610    0.72511280630519
O          -0.21860001894448    1.34158813403474   -1.42864982732204
H           0.50719696411536    0.74374883310230   -1.20216319258507
H          -0.86360655392960    0.80699471652484   -1.93252553301869
H          -0.64858083185164    2.08855330505484   -0.04830206907889
O           1.86462618458830   -2.68783100469352   -0.23450691700311
H           0.96943148698317   -2.50392726501136   -0.58191463283403
H           2.37097652675392   -2.99421307136698   -0.98875845557919
H           1.91281063910838   -1.00819968453535    0.16938430981819
N           2.12408546137609    1.78857817152295    2.05437494705578
H           2.91075302267274    2.41554728161285    1.94169743916025
H           2.05960188764667    1.54259940528410    3.03448026871902
H           1.28389755369465    2.30307100723588    1.81022733068343
