    26
        -50.44721204  Gyration_radius:  2.51048746914 Dipole_moment: 3.931
 S          -0.33897130984929   -1.75029269475242   -1.15725397764053
O           1.13357662155743   -1.78120446974725   -1.22502501488297
O          -0.77768269274994   -1.53717539999945    0.21361189884310
O          -0.92779190143473   -0.84291534435604   -2.09964577157816
O          -0.78159600903049   -3.21440942471636   -1.55033295473447
H          -0.23087359573653   -3.72981180327270   -0.97075814311374
O           0.60934454821514    2.07291881703270   -0.22543531534757
H           0.83509874133559    2.96557658827593   -0.49141473765557
O           3.00628410593155   -0.14001982913058    1.57989973850120
H           3.44620124842504    0.53115075931725    2.10394279380364
O           2.35121990675259    0.30665420235184   -0.84205519163340
H           1.82103016913800   -0.61489526462230   -1.08318446005516
H           1.64065760774192    1.02629081959021   -0.67151916729720
H           2.75937274962377    0.10854295047532    0.07790305686805
O           0.43355407205579    0.17412872930061    1.86187454433301
H           0.31164875430286    0.98333794350677    1.34698944278449
H          -0.01927887372472   -0.52675861644269    1.34835174234892
H           2.04332758927259   -0.12431655193203    1.84163673371365
O          -1.64371175297975    1.56630251398273   -1.24237504723493
H          -2.21126979021890    1.28184327863627   -0.48424419902863
H          -0.31288971915976    1.88510622817519   -0.65066603310232
H          -1.45910022300469    0.73411423873540   -1.72334207229390
N          -2.86752293857850    0.36419056646804    0.83674026038585
H          -2.25719601065366   -0.43673355202992    0.67447765614687
H          -3.82293026251764    0.04733845745946    0.73238482774350
H          -2.74050100485247    0.65103684764814    1.79943938000416
