    26
        -50.44246343  Gyration_radius:  2.62800958603 Dipole_moment: 4.230
 S           2.16046533534318   -1.00962820721927   -1.13156414805512
O           2.17875012352743   -0.28743600561646   -2.38091752298135
O           2.50412319770941   -0.13564599867930    0.00700489099893
O           0.95616510385570   -1.75508557276356   -0.86680611087682
O           3.34132875555952   -2.07217534730683   -1.21483412170021
H           4.04009199560750   -1.58136807564817   -1.63695068479747
O           0.18362139688138    2.63026314911942    0.35006705258412
H           0.98943278799915    3.13460774488696    0.22506635535921
O          -1.47928664345683   -0.49364854019981    0.20229606682035
H          -2.15181068719307    0.01341292957993    0.71078290759019
O           0.56403305701994    0.33144937253884    1.42219338478185
H           0.44054703099427    1.31024678850131    1.17713418652681
H          -0.24173548095370   -0.12321831892109    0.92925842614748
H           1.44797143345994    0.05268708287654    0.86144922127874
O          -1.01872516760443   -3.09879684830271    0.33227327546744
H          -1.56604308769100   -1.45981578490885    0.34554003230060
H          -1.35319887509260   -3.68907356277948   -0.34509419960866
H          -0.18305541456291   -2.74042275778752   -0.02705837836390
O          -0.03729670975324    1.01812571638524   -1.69030873483480
H           0.77200984132041    0.60051792665871   -2.04559795561880
H          -0.58602536371391    0.29663908941525   -1.35300378781103
H           0.04556916270041    2.12970698159819   -0.50421110056776
N          -2.70506217774099    1.48239094911012    1.55496557416170
H          -3.62491200671186    1.81613659151812    1.29603513952051
H          -2.02680123125687    2.15728373729791    1.21627408477146
H          -2.65015636626036    1.47284698066519    2.56600613689755
