    26
        -50.44246361  Gyration_radius:  2.62784744966 Dipole_moment: 4.233
 S          -0.17491524177656    2.63401191749088    0.01487698371253
O           1.19482033736918    3.00097002479138   -0.25334833102531
O          -0.82587247366798    2.05449444310373   -1.17613907989569
O          -0.37520376457243    1.79909298815574    1.17204948323319
O          -0.95188500822736    3.99330018548315    0.29662530699004
H          -0.58250859385697    4.58639619917517   -0.35081763009107
O           0.05036541491053   -1.11441819176223    1.10970177659956
H           0.06418073497940   -2.07683213279156    0.90602071406606
O           0.86777164042059   -0.93822932285653   -2.33100456329260
H           0.96282548767251   -0.40723760278445   -3.12368205624718
O          -1.20342535307640   -0.35089506347363   -0.93702700777921
H          -1.13206410545059    0.72689491278257   -1.01443443688671
H          -0.50945810340272   -0.67188817260690   -1.60704173102044
H          -0.75866361234280   -0.60132048999519   -0.02127576148155
O          -1.40587606046403    0.10004358565327    2.95859118059554
H          -0.49070175286054   -0.91717688687870    1.90338207690487
H          -1.01768139492010    0.36488372962956    3.79423680805440
H          -1.18996253850474    0.82028257469540    2.33352338737660
O           1.89161790505960    0.43328744630366   -0.36094812173450
H           1.44311820881575    0.08103378403949    0.42018055822067
H           1.39052140298441   -0.46127168887051   -1.62477063976817
H           1.75014934703325    1.40047597921261   -0.34236971851441
N           0.20718543968817   -3.43981242744835   -0.23397115161853
H           0.59365653852196   -2.96420218917465   -1.04307891250422
H          -0.65581377881239   -3.88403161037145   -0.52240487654377
H           0.85781931448481   -4.16785199151213    0.03312575265217
