    26
        -50.44246367  Gyration_radius:  2.62801777291 Dipole_moment: 4.236
 S           2.28673233618370   -0.89201392081228   -0.97128035424774
O           2.67486667928687   -1.82342821368535    0.06046687591237
O           1.13723961749786   -1.39186677467256   -1.75050154103163
O           2.06378401085342    0.46119279630665   -0.52949994751342
O           3.49809400149556   -0.83831238169516   -2.00090569091782
H           3.76465447578597   -1.75073386565947   -2.06311881972612
O          -0.45375715267686    1.31112064951943    0.73789602728858
H          -1.38805500776669    1.49386124023434    0.98622643073964
O          -1.77992818922535   -1.94697203339131    0.33218923130663
H          -1.66840943707538   -2.84030294828445    0.00229587373376
O           1.26460071955911    3.00559759018380   -0.35338870306542
H           1.63442103759554    2.13048784880111   -0.58430655137082
H           0.01131094227762    2.12284406503271    0.44398458432058
H           1.93703615391482    3.43179616075482    0.18076986534604
O          -0.90964996899793   -0.14182140565234   -1.26851702768350
H           0.00790290336605   -0.63666546901795   -1.56282195111290
H          -1.40411414013128   -0.86828125969046   -0.75735630569978
H          -0.64236233911692    0.52348063407167   -0.50402111943897
O           0.47467070283719   -1.25294489449355    1.44761636151661
H           0.46435672907758   -0.28696968034585    1.39978720905694
H          -0.96258331135421   -1.75817883040417    0.87617693354237
H           1.31019105702863   -1.53681968681612    1.02681862791375
N          -3.08788857794816    0.99655442642710    1.18390781843596
H          -2.99382122536311   -0.01235036037860    1.12513588620960
H          -3.73541242411615    1.28701736396897    0.46166404061886
H          -3.50387962298444    1.21370895969493    2.08078224586793
