    26
        -50.44246361  Gyration_radius:  2.62798436269 Dipole_moment: 4.236
 S          -2.50697278338509    0.32624978529335   -0.75987492804492
O          -1.59862191886528    1.23389670011997   -1.48746745394734
O          -2.73251524214274   -0.89789645693863   -1.49011831356744
O          -2.08670485673132    0.16045149022264    0.60835070786937
O          -3.90608119567089    1.08190447125609   -0.71539497431092
H          -4.25200214609098    0.94015780240640   -1.59157147692168
O           0.70648189236947   -0.41133369441495    1.34321654775563
H           1.68386832985203   -0.42972879261434    1.45419910007166
O           1.65111877545983   -0.26911227036440   -2.06655028060665
H           1.40076217806076   -0.11619382297684   -2.97938933925357
O          -1.07092197891559    0.56431657986239    3.04720858162155
H           0.25334615405230   -0.09205301616329    2.15211139605488
H          -1.54991319123581    0.57024832085958    2.19486984931086
H          -1.57449345176541   -0.01980191572930    3.61671120721806
O          -0.24395875957807   -1.69589823078426   -0.97878004736637
H          -0.16883275478356   -1.49372491616845   -0.03595851805743
H          -1.17097269538974   -1.50595488288531   -1.22435593821776
H           0.98990178212818   -0.93129736459836   -1.71465586708439
O           0.59576753903292    1.38705304058182   -0.41688595953806
H           0.55556985312807    0.70026179163556    0.37391494922403
H           1.13147733496740    0.87851330662689   -1.11539359030590
H          -0.39973600785768    1.40451265288165   -0.84313916894901
N           3.34122193968665   -0.34858173625369    0.80354258379745
H           3.96308178631747   -1.09140716122048    1.09702417585654
H           3.83146932108645    0.53036379592808    0.91508600105191
H           3.15766008627203   -0.47494548655549   -0.18669926366335
