    26
        -50.44246349  Gyration_radius:  2.62801116104 Dipole_moment: 4.231
 S          -2.07797467276832   -1.20267611933058   -1.09690607941826
O          -2.94928316719347   -0.07775155294585   -1.33778088183323
O          -0.91551556027289   -1.19468816843358   -2.00628742945923
O          -1.66348476736483   -1.38073754736846    0.27151316117037
O          -2.90841158475119   -2.50095952770217   -1.49084985856676
H          -3.36421838024471   -2.23004671541639   -2.28218370812984
O           0.53710687463749    0.16539359414661    1.46844289310243
H           1.38345168200774    0.61795154326599    1.68484760326433
O           1.09231543885344    1.80111600779587   -1.62372053202848
H           0.86262785679230    1.90055220165235   -2.54930244290191
O           1.15957950351550   -0.63888228895538   -0.83591557148338
H           1.30327164999964    0.28653136978625   -1.23126648229757
H           0.86196490431185   -0.41673376066044    0.14432669697004
H           0.26668778947269   -0.98180136914004   -1.34461467758672
O          -1.14404694560395    1.58055774840870   -0.29672379613672
H          -0.88755980921539    1.10404902034885    0.50489061432026
H           0.22823323230670    1.86380277960717   -1.12488980788828
H          -1.87483335566157    1.06799820172210   -0.69529909849542
O          -0.35112592790585   -2.11525280940595    2.48094099346302
H          -0.84411418949211   -2.03545183925398    1.64042309574825
H           0.38166767330102   -0.61236424275531    2.04504798347590
H          -1.02002728726572   -2.11750930568604    3.16773549740571
N           2.79322826201998    1.61222765741527    1.23702985673501
H           2.99396029728038    2.38935470000583    1.85374449365061
H           2.47576314172603    1.99592474735957    0.35259139951823
H           3.66073731148839    1.11939566558599    1.06420607745200
