    26
        -50.44540633  Gyration_radius:  2.75921412311 Dipole_moment: 1.146
 S           2.59897954650951   -0.17085904118659   -1.57370528965555
O           2.40372530259679    1.22803586515073   -1.31474233998084
O           3.14192224531928   -0.86964546888664   -0.33511381173578
O           1.48335195374402   -0.87196676759501   -2.12231072158933
O           3.80220885805374   -0.31395687176253   -2.57252434569481
H           4.46097629832144    0.30173241402686   -2.26056743545242
O           0.23064470934984    1.49559819222963    0.27885861975739
H           0.97262720701250    1.71753131236075   -0.30607051384985
O          -0.76766057443777   -1.74850893743334    1.38318877388759
H          -1.07103354852479   -2.46580420747972    1.93988685955517
O           1.55549420114532   -0.41979106258856    1.50114570005137
H           2.48819402302683   -0.70604431460319    0.50289654524807
H           1.10453594323701    0.40988553149954    1.18928379425820
H           0.84021274572906   -1.09347475555113    1.50075006886348
O          -1.83484571141781    0.53408795923487    2.07775332679320
H          -2.52320458112543    0.66430904449396    1.38098472419975
H          -1.21821556509728   -0.91837819316588    1.71910972673637
H          -1.13681891066266    1.15912037572541    1.85131204308360
O          -0.98007887764752   -0.48419473837269   -1.10736797742929
H          -0.19334073800232   -0.67531807949169   -1.64666824419938
H          -0.97321273165128   -1.14091931190677   -0.39356683287468
H          -0.34220545713168    0.90322676289436   -0.25829481907270
N          -3.42233272541720    0.85410233883076   -0.10032475729046
H          -2.76196527087213    0.41779330128858   -0.73805318291081
H          -3.54740429666623    1.81383290091240   -0.39644238778559
H          -4.31055405456131    0.37960576173171   -0.19941751288059
