    26
        -50.44540675  Gyration_radius:  2.75911409689 Dipole_moment: 1.148
 S           1.71619674811541   -2.31150690403697   -0.98575771482183
O           2.88787063878328   -1.40839407562842   -0.62797806670390
O           1.07465594791830   -2.79521096129832    0.20457346443163
O           0.86557066601843   -1.70328533742472   -1.95734531831348
O           2.44510837674019   -3.52352012763633   -1.66821290678927
H           2.86079873341353   -3.99944668280325   -0.95327566909562
O           0.54518099618594    2.25644509054808   -0.41231763068410
H           0.77717319798776    3.16887078164070   -0.58574521907619
O          -0.31508240444532   -0.75054293682173    1.30825633932674
H           0.01831440769702   -1.64545177621182    1.13484711156875
O           2.00734678726866    0.38321734779388    0.82196459372301
H           2.56137609431093   -0.60467923299920    0.00922356609740
H           1.67603525933139    1.12726504070816    0.27194524309371
H           1.18083693320867   -0.03126943326359    1.18854651666585
O          -1.04608449924631    2.03799999689919    1.64943604241107
H          -0.05814820658286    2.26414420674407    0.38830669084152
H          -1.92247148145679    1.87750109322729    1.22204992622032
H          -0.79012565694163    1.18188306006789    2.01094714206974
O          -1.01482629473855    0.05674969040693   -1.17480906117175
H          -0.46138738572172   -0.60916078203352   -1.61833097922996
H          -0.74515250079733   -0.47722093714102    0.46691655004654
H          -0.49354352054698    0.87460330848202   -1.17886210561861
N          -3.27327668796219    1.28596453662191    0.29326204767260
H          -3.86173312101742    1.94981027854769   -0.19347730248280
H          -3.87550491591000    0.64130145152849    0.78943543743903
H          -2.75912812164456    0.75393331426492   -0.40359872758056
