    26
        -50.44540634  Gyration_radius:  2.75860164805 Dipole_moment: 1.136
 S           1.78120183198322   -2.33778882040196    0.78491625497406
O           2.65435334756698   -1.19959853762828    0.71666786560096
O           0.98859217631369   -2.32187447769344    2.08415041860343
O           0.93186426256090   -2.54908586485018   -0.34263949222465
O           2.67095177627069   -3.61852001311381    0.97042393418316
H           3.33373480290572   -3.37158398587848    1.61082299720620
O           1.14654802973587    0.99752487257472    0.23905436656834
H           1.91991559942926    0.42135860557881    0.34856581227373
O          -2.29280179288343    0.09338483342098    0.54925157343256
H          -3.22224599246160    0.11980264355164    0.77697840023223
O          -0.18973629740305   -0.15643118745543    2.18810771750873
H          -1.05611251202884   -0.22437585497011    1.72920934897263
H           0.45288798944013   -1.39393422778975    2.18516507602373
H           0.35928748702544    0.41011515543970    1.58243245501659
O          -0.39133545794596   -0.47175472359420   -1.42973345953564
H           0.63468143398512    0.59130113182951   -0.49606830810489
H           0.06813944019794   -1.30454913420767   -1.22562048479881
H          -1.18898215128387   -0.47091019879755   -0.87805588378254
O          -1.34238701534837    2.48235650421595    0.08005191425973
H          -1.28614754990125    2.49681196078975   -0.90644375775721
H          -2.01217000907954    1.04255685069767    0.39024967749661
H          -0.42886308013949    2.39633634142976    0.37539130046334
N          -0.95801208271593    2.19266689976750   -2.59058175384831
H          -0.71667715941520    1.20747590144070   -2.52468659393926
H          -0.14992981028615    2.68307499931615   -2.95273144823261
H          -1.70675725656109    2.28564032651007   -3.26487795036431
