    26
        -50.44540671  Gyration_radius:  2.75900154419 Dipole_moment: 1.145
 S           1.85983384949999    1.93771946973883    1.42981729528302
O           2.32042884944010    0.70737540840092    2.19819482839922
O           2.33330970352663    1.88861143943766    0.07488783464455
O           0.46140875829558    2.16710138083675    1.60079862213058
O           2.63501560235299    3.08472218636274    2.17127560614857
H           3.54274312860870    2.99369223319289    1.89180992572387
O          -1.09053169707483   -1.77136224332293    1.11104386344378
H          -1.52798219282189   -2.48684528838145    1.57272824491702
O           0.89047333557179    0.02313081048090   -1.25448166718685
H           1.50424482091672    0.75362157950612   -1.07625032008972
O          -0.92297170080719   -2.23470406816934   -1.45568085417658
H          -1.06651702992328   -2.03063291301595    0.14296040682386
H          -1.63235010450382   -1.65217774278742   -1.82158116209824
H          -0.09916615472217   -1.79057655062465   -1.68644122806226
O           1.53403738747793   -1.26699851701007    0.94482761099772
H           2.00567123317399   -0.18984432435136    1.69352646873256
H           0.62298441224793   -1.50262393557635    1.22836066009108
H           1.41285653804972   -0.89846123586552    0.02898557811566
O          -1.31540979274320    0.82725084756435    0.08564999846830
H          -1.42191735105507    0.02454893901943    0.61947521671901
H          -0.82490160405579    1.45229764600147    0.64695638136455
H           0.01762102925374    0.34704055682960   -0.93720663381173
N          -2.67913183793207   -0.33375451793709   -2.27261621669200
H          -2.42332200026368    0.32267896087542   -1.54000488808474
H          -3.68153416977547   -0.46673378587849   -2.23535470149615
H          -2.45489301279551    0.09492365469853   -3.16168088016298
