    26
        -50.44540641  Gyration_radius:  2.7589712745 Dipole_moment: 1.144
 S           0.14868494159408   -0.99805131555991    2.87053871600845
O           1.51019235697702   -0.94280499119368    2.41713450802309
O          -0.34700315794095    0.39433674067075    3.23404886702066
O          -0.77302902329790   -1.67417091452855    2.01572616514944
O           0.13315835910753   -1.71596574680377    4.26712458872336
H           0.87359681987935   -1.34981584054103    4.74470762065058
O          -1.73863433460975    1.39317211988816   -0.77491455144604
H          -2.44950967497603    1.95807812063022   -1.07823004256457
O           1.52970406627194    0.14822224029243   -0.06061475241767
H           1.82710725253281   -0.29959532811239    0.74750722886667
O          -0.02946706306828    1.81689119662629    1.24305445504625
H          -0.23113900755027    1.06262802916431    2.39853086804987
H           0.68409935345603    1.32984298932381    0.75018560308629
H          -0.81292391001552    1.75100341517944    0.65341988106452
O           0.37710136352512    1.59883042320684   -2.29555015863103
H           0.33317674322555    0.76915233178716   -2.83044897923888
H          -0.97322691884882    1.53607560146726   -1.40635192705740
H           1.09172475862008    1.44633894595791   -1.66691047780586
O          -0.73084718751752   -1.21745375427032   -0.63713845231688
H          -1.31859436337805   -0.44740266627545   -0.68509148728205
H           0.80787712537645   -0.42112447720407   -0.41039633080951
H          -0.82784135412455   -1.56511812125809    0.26618507316085
N           0.25176146327944   -0.87290932141618   -3.40910308313000
H          -0.37146386664686   -1.09392667697279   -4.17498925112935
H          -0.11534676347216   -1.31341893435950   -2.56997084740532
H           1.15084203153922   -1.29281405569341   -3.60845323376709
