    26
        -50.44540672  Gyration_radius:  2.75893419016 Dipole_moment: 1.146
 S           2.65830781416535   -0.99811154000192   -1.09335519391448
O           2.43275581554933    0.26468414933461   -1.73910368247053
O           3.15987806418895   -0.78589002880175    0.32778694238597
O           1.57557139588409   -1.92746003286534   -1.13192178053498
O           3.90298397943310   -1.67278677782963   -1.77289203239275
H           4.53949774963857   -0.97030236300690   -1.88109115152561
O           0.19697347414455    1.36570241137639   -0.68243885611422
H           0.95753140921333    1.21305073468978   -1.26589166851912
O          -0.78984419545666   -0.57497944189385    2.14640914088109
H          -1.09936442432354   -0.81462894227813    3.02000507060579
O           1.50358690309132    0.63446349672699    1.47906191034080
H           1.05208478668212    1.08800538189746    0.71758478186410
H           0.79871376302025    0.07442340971809    1.87354432488819
H           2.47323140869997   -0.16700559038722    0.88042818345056
O          -1.92144672803744    1.61832892331632    1.28628376808341
H          -2.58488042205783    1.27360929158042    0.64018599957089
H          -1.26781148433137    0.27038758152021    1.89765707120843
H          -1.22590732413750    2.00260207141003    0.74064184303312
O          -0.92820688132251   -1.09090070197529   -0.60518739320057
H          -0.11921030732357   -1.54178487528491   -0.90294440608617
H          -0.93764319230019   -1.18114026974013    0.36037117686392
H          -0.34549585919778    0.54893137721794   -0.76074150420617
N          -3.42969056322075    0.49275241422470   -0.66913812952560
H          -3.55919570566815    1.07139284243440   -1.48940905821660
H          -4.30502694977675    0.02223383169272   -0.47872107654093
H          -2.73739254658769   -0.21557735269955   -0.89712427000371
