    26
        -50.44540673  Gyration_radius:  2.75904967736 Dipole_moment: 1.143
 S           2.05086385999284   -2.24089012436293   -0.17773222990074
O           2.29830485231901   -1.59792865586386    1.08227118855178
O           0.84386669091983   -3.16265601710236   -0.07528084306690
O           1.95857324803176   -1.38401059492836   -1.31549427232744
O           3.21286950888308   -3.26571605873640   -0.43380327992763
H           3.35275169350055   -3.69931506227228    0.40451547327629
O          -2.10054549532175   -0.11019940809371   -1.06504970828391
H          -2.94969709574584   -0.16513386171751   -1.50359731148339
O           0.38870703290000    0.28364690432045    1.46276996944151
H           1.19644143280705   -0.24104444779469    1.58207899215241
O           0.51648321113251    0.88490045906022   -1.16954297981216
H          -0.36029611382067    0.54384513028295   -1.40551287645224
H           0.47560190618895    0.67498514051589    0.56452824799613
H           1.14030484524192    0.16609185195936   -1.37079918496712
O          -1.04613029334672   -1.79537283073307    0.72985804565713
H          -0.01495150698555   -2.61804200219726    0.27552754279484
H          -0.58152135475688   -1.03884374456411    1.17805397666664
H          -1.50394898179043   -1.37536932216095   -0.03150671355050
O          -2.14112309771179    1.59643883354229    0.91396584193203
H          -1.50735984338241    1.20743946655362    1.52728963465302
H          -1.67089348603897    2.37555562141844    0.52896470238109
H          -2.20590483998860    0.55715111546809   -0.32443794740004
N          -0.54579220160477    3.47944004017591   -0.21511186149315
H          -0.88695648953444    4.14405920580416   -0.89756593066260
H           0.03506941279955    2.80203326920038   -0.70164884328440
H           0.04528309523886    3.97893510216891    0.43726036713985
