    26
        -50.44772982  Gyration_radius:  2.51298552754 Dipole_moment: 2.774
 S           0.72804664864847   -1.86542781630682   -0.67495992259778
O           2.07210341319793   -1.35132959853549   -0.35886135713207
O           0.14911187557871   -2.57005122192316    0.44406862671962
O          -0.12490653430156   -0.83887599665859   -1.22995778046335
O           0.95818036650901   -2.93118490987654   -1.82008128365058
H           1.45065398877756   -3.59425866626860   -1.34835149340227
O           2.07194378682093    2.52124511562515   -0.98805921102599
H           2.14162257698562    3.45190594425364   -0.77001142679562
O          -0.10828807220341    1.19407460795483    1.79949332275306
H          -0.12936721329572    1.49965718909617    2.70768366427547
O           2.22762443909746    0.76748031413428    0.85500499444539
H           1.30458530888848    0.90693714618242    1.27881086122079
H           2.19078859369595   -0.19055962562938    0.33518875949494
H           2.30043266852973    1.47198846669095    0.11268024828329
O          -1.46840101634636   -0.93308576048441    1.75841179249282
H          -0.66329937788775    0.32430714765133    1.78983474650635
H          -2.15143222585875   -0.79069613590039    1.06052005132742
H          -0.88386385333010   -1.62561826877979    1.38406307913192
O          -0.43525895155341    1.80850892054396   -0.93251253460996
H          -0.36720533115073    0.87064596686736   -1.19592071132578
H          -0.59184996613528    1.78217488238094    0.02165687632782
H           1.10326391195389    2.32859226596450   -1.13331848814791
N          -2.91581623114982   -0.56677023313660   -0.49991789393449
H          -3.23967535671947    0.34140360228394   -0.80894684639889
H          -3.58596025469683   -1.25745506074585   -0.81282722264731
H          -2.03303319205811   -0.75360828567198   -0.97369087458890
