    26
        -50.44540676  Gyration_radius:  2.75918679572 Dipole_moment: 1.144
 S           2.26290290552505   -0.89130592365314   -1.82895085562737
O           2.48987914624909    0.50774095105789   -1.59776593016600
O           2.72042709934514   -1.70883254645926   -0.62934012755229
O           0.94533167067216   -1.25689034997094   -2.23840040562811
O           3.26660993890747   -1.36671744502026   -2.93920665427942
H           4.09913109454403   -0.95799036459599   -2.71509068403099
O           0.66121769452263    1.37675206458779    0.20019915831023
H           1.36723695558775    1.38131862757748   -0.46576816959058
O          -1.05841742295965   -1.45870741457870    1.51937996457310
H          -1.48211945013284   -2.06073580655870    2.13130892818309
O           1.53739590765394   -0.82244445871568    1.34671579511281
H           1.29976112771709    0.09766676752134    1.05354901880506
H           0.66900280258540   -1.27154643756136    1.44621419883412
H           2.23620307846157   -1.36313820343899    0.26676927618493
O          -1.37992713841313    1.03425877652098    2.23517377036974
H          -0.56714932658803    1.44133937552291    1.91451914492684
H          -2.07883807167434    1.34366986140948    1.60886349910804
H          -1.22638679009745   -0.53403830155285    1.86836855714857
O          -1.18862343302838   -0.20133127220525   -0.98126423327796
H          -0.10687859998846    0.96203175487837   -0.25310233653149
H          -0.54920051168869   -0.60465803004348   -1.59346176576487
H          -1.28286939405687   -0.83075907820264   -0.24937499165057
N          -3.04933136841929    1.76194226403663    0.22308828368225
H          -2.94153006384452    2.71730572023279   -0.09323741459300
H          -4.03812743352423    1.54743093589879    0.23403178829954
H          -2.60570041738577    1.15763853330952   -0.46321780482987
