    26
        -50.44721207  Gyration_radius:  2.51045191865 Dipole_moment: 3.932
 S           0.91269724244604   -1.87526767096972   -0.41163286361007
O           0.41760885449057   -0.93334648264145   -1.40401957916572
O           2.04504543766671   -1.29031402434036    0.32964419191211
O          -0.11012046370321   -2.40224920684372    0.44534069500648
O           1.54638116262832   -3.08125085176618   -1.21044647642085
H           2.28905177340560   -2.65279027134167   -1.62245345833964
O           2.33163530179026    2.44921198328128    0.33911942129777
H           2.21393549062654    3.36562865501280    0.59391386916061
O          -0.89554551810809    1.11081569121411    1.63835200676007
H          -1.30596971238470    1.44545291473126    2.43715862797518
O           1.58819177260550    0.55385739817019    1.87197464297229
H           2.00962542099430    1.33028994796962    1.35078320705877
H           0.57694323245236    0.71962283478210    1.82964514111937
H           1.79657285801719   -0.31123095207552    1.24220978551812
O          -2.24530241962452   -0.89677100637717    0.92145306726676
H          -2.50004323487246   -0.71525662111447   -0.01673781754953
H          -1.55193911112598   -1.58364972797355    0.84828474961462
H          -1.46077116937608    0.29167210056940    1.36203990700150
O           0.17959375470143    1.67767654657788   -0.91415685505660
H           0.30677417517566    0.74918707061710   -1.19994616266811
H          -0.43367230140410    1.63087335270359   -0.16812545845487
H           1.59014950858258    2.22819420013854   -0.29129420209967
N          -2.41713833523746   -0.45830498584996   -1.73216686091435
H          -2.52567043299824    0.46302391563188   -2.13789941653210
H          -2.92941079384148   -1.11243024499897   -2.30994051996745
H          -1.42862247250297   -0.70264458465948   -1.79109963160754
