    26
        -50.45479399  Gyration_radius:  2.47097307213 Dipole_moment: 5.893
 S           1.26997420121742    0.77292426303450    1.49130763714926
O           1.71455505402374    1.14730211429148    0.05729834266693
O           0.22165590879613   -0.22654367887222    1.38835305894111
O           2.40887681360317    0.38108187037948    2.24541841069874
O           0.66816578715670    2.06539665861063    2.04369518558881
H          -0.09843773212544    2.33938584061614    1.37998874637018
O          -2.39536124232756    0.38069185208362   -0.97484556545594
H          -3.14546678591165    0.20919492340582   -1.54571437497241
O           0.68073686695694   -2.35112477516568   -1.41286082155830
H           1.08273051424613   -2.98181417758001   -2.01175704456050
O           2.05516700662724   -2.10823594558301    0.86278596741999
H           2.86754225684281   -1.67843947033429    1.14300573413175
H           1.35107844782634   -1.55854535690402    1.24742767078441
H           1.25825700079039   -2.31532227405145   -0.61639315942284
O          -1.59848535393121   -1.81906784013928    0.18627033621112
H          -1.04861599159595   -1.34568985385705    0.83202968449930
H          -2.21473870825904   -0.46993560959014   -0.48600376590304
H          -0.96314017034016   -2.22400100831415   -0.42252917294579
O           0.20156282647028    0.30424882893903   -1.79776477394232
H          -0.74061988070567    0.40020512325217   -1.55448298870887
H           1.08666487780727    0.82619537097379   -0.68516566530884
H           0.38478544972277   -0.65531091982767   -1.77547567609751
N          -1.09568545280165    2.66854244363257    0.29971808852148
H          -1.64538314845759    1.85397612602118    0.03287978188364
H          -0.57892170775644    2.97962482523579   -0.51340079653661
H          -1.72689683787947    3.40526067973900    0.58621517055494
