    26
        -50.45479411  Gyration_radius:  2.4710360872 Dipole_moment: 5.897
 S           0.68405595606985    1.97062306078565   -0.28933307997825
O           1.24288777804283    0.63049349159292   -0.29867780169664
O          -0.71379859160754    1.89981801336838    0.37035127705149
O           1.46684649152452    2.94909122032044    0.38082778874163
O           0.39505071923450    2.39579484893371   -1.72939601007520
H          -0.26419773523644    1.67787509683568   -2.12113794746638
O          -0.89197397679690   -2.02729529840326   -1.38919330494178
H          -1.21297372543798   -2.91909368663204   -1.52935995120694
O           0.21534908498965   -1.25718245595797    2.52221984144129
H           0.08296908480173   -1.51841269057953    3.43450803555020
O           1.30301365450703   -2.04990558987450    0.02674899618445
H           1.51647329496410   -1.12646452468164   -0.18581993563578
H           1.02054981251702   -2.02653455646302    0.95298938241396
H          -0.00479060584650   -2.11591921502811   -0.94181648467968
O          -1.63763426147368   -0.44132330030773    0.69775146903243
H          -1.45228871678728   -1.00539898372587   -0.07918135015099
H          -1.06184470293336   -0.77710559376710    1.41246858463767
H          -1.09218090938573    0.95426988751401    0.47579991613543
O           1.83592581589625    0.85329554283548    2.30480752130675
H           1.76769881648139    1.80158591955832    2.44369874898405
H           0.80695025385543   -0.47060295666915    2.54018821677749
H           1.85807104301199    0.75610754496097    1.33745479478364
N          -1.28000749918046    0.64027119717906   -2.52252558737047
H          -2.14516379398157    0.85129500793410   -2.04063872114718
H          -0.98791790794937   -0.29730856453418   -2.25315125144569
H          -1.45106935928509    0.65202658481751   -3.51958315725665
