    26
        -50.44540651  Gyration_radius:  2.75908449577 Dipole_moment: 1.146
 S           0.51291125059220   -2.96931822396936   -0.42370518714117
O           1.01479285864352   -2.94596156426029    1.01316957734781
O          -0.91507170428139   -2.82164371212781   -0.45812355172144
O           1.25879050065291   -2.07797576499251   -1.25217951285260
O           0.85729096838740   -4.43887835465260   -0.85703444048577
H           0.21999202341092   -4.98826617438576   -0.40708614023753
O          -1.51351050757892   -0.24758873086379    0.13222409967699
H          -1.61165247055855   -1.17077822342274   -0.15072302509263
O           1.46956422116024    1.38410877593513    1.21856466552472
H           2.07428604899842    1.93673116189805    1.71391918224737
O           0.21495413376606   -0.84134854479365    2.02357542393242
H          -0.56578102708936   -0.61712493216621    1.44972948844157
H           0.69290646437448   -2.04621072444038    1.50699016864646
H           0.85593031362650   -0.11802720408487    1.84583121512602
O           0.62881344690050    0.53875894018786   -1.31658284400999
H           1.15851900508631    0.85820558340868   -0.56947085235196
H           0.93205393802343   -0.37045183022762   -1.48291138017673
H          -0.85893110939906    0.13691130653166   -0.49327625710411
O          -0.92933369678876    2.41728909965570    1.12350862700684
H          -1.48560035000007    1.63061069524097    1.09449613734284
H           0.58144202123042    1.84881608508381    1.23554923108997
H          -0.96424382840141    2.78254683889438    0.20608892576671
N          -0.93471934209134    3.04543269602738   -1.51685650236711
H          -0.37865343303162    2.23841417232256   -1.78607524853957
H          -0.47879752807374    3.87281496189046   -1.87949132675590
H          -1.83595217781161    2.96293368747559   -1.97013046346219
