    26
        -50.45479407  Gyration_radius:  2.47117388885 Dipole_moment: 5.895
 S          -1.94074709552702   -0.75897214350060    0.30006878421935
O          -0.57567121750527   -1.24795306931813    0.37580991260477
O          -1.92299143816933    0.59016128306460   -0.45709784054015
O          -2.86444940666242   -1.63569136162224   -0.33044172817598
O          -2.41262065752423   -0.38995405611500    1.70689522150116
H          -1.73751464099503    0.33057703758741    2.06402853031419
O           1.94771651684279    1.09266454068853    1.35838688125552
H           2.81896007624098    1.46832520212902    1.49189085642250
O           1.32457914101739   -0.33512885394923   -2.47517309466763
H           1.59979969084205   -0.25604102955506   -3.38949462056182
O           0.37697431448195    1.60267814593989   -0.80942612466417
H          -0.99455870167543    1.00627983413521   -0.57400617197193
H           0.93078827630885    1.50328422160718   -0.00973007479136
H           0.75709375932997    0.99385263489136   -1.47260906210013
O           2.11125541316331   -1.19559499912227    0.10950078929713
H           2.09606790450432   -0.98326144350764   -0.83538901369909
H           2.09039628971286    0.18096385598871    0.97950631823317
H           1.19470191106058   -1.43970938300267    0.31875508901556
O          -0.70950816218585   -2.03916780281120   -2.18050107733447
H          -1.65651902383667   -2.02954670950432   -2.34253445420662
H           0.56824346423517   -0.96506461418176   -2.46486533162261
H          -0.63384308695436   -1.98551251559850   -1.21243449763978
N          -0.75991162097953    1.42426362623629    2.41103582119779
H           0.19690074658623    1.16209195808230    2.18180445532037
H          -0.80289944430667    1.66574387221716    3.39238814528556
H          -1.00224300801369    2.24071177922440    1.86363227730423
