    26
        -50.44540638  Gyration_radius:  2.75904147192 Dipole_moment: 1.148
 S          -2.21915015590949   -0.61107697727784   -1.99029777831004
O          -1.22645460542417    0.10725982846322   -2.73918180978887
O          -1.79738432313859   -2.06154896266851   -1.80394854768039
O          -2.62487599283654   -0.02204294153206   -0.75502285252074
O          -3.49193694667534   -0.76374471600218   -2.89737461878945
H          -3.15755624964143   -0.99539684830646   -3.76048119015500
O           0.44561515275131   -1.36741794621084    1.86899652353280
H           0.61725697601180   -1.92997195257790    2.62431210619271
O           0.91023526933873    0.51585299675530   -1.12746008556964
H           0.30980567007030    0.57250425393186   -1.88798068122951
O          -0.77874245850958    0.97264979092906    0.93313351263877
H          -0.56186148137459    0.17212517249749    1.43602067627089
H           0.38192437034609    0.84757310607914   -0.36692042695608
H          -1.57187880462029    0.74999073604849    0.41572445240060
O           0.42093770757128   -2.03604838270464   -0.72410620249563
H          -0.82968372452634   -2.11265024372536   -1.33536875395473
H           0.76094459915385   -1.13353960354754   -0.96744951546649
H           0.31960455115903   -1.99634115922993    0.25261314650234
O           2.53726910759154    0.06544940267787    1.23446065235436
H           1.29302334991548   -0.86134819207238    1.69355798484856
H           2.44145689369168    0.14863741900249    0.27893374661697
H           2.29696761842839    0.95608585630945    1.58854848546196
N           1.54634587634539    2.48037077420380    1.97698166776052
H           0.59323730865007    2.25642198992707    1.70410083674501
H           1.85467472429207    3.25814462962684    1.40737759268985
H           1.53022556745688    2.78806195919053    2.94083105903012
