    26
        -50.44540662  Gyration_radius:  2.75916936947 Dipole_moment: 1.142
 S           2.82105947502987   -1.12368008913320    0.19658220851799
O           2.97679044496718   -0.60333072603893   -1.22546539402927
O           2.78112374585332   -0.03149577176885    1.12809918932219
O           1.75934308112961   -2.07284800091646    0.29200713686863
O           4.17689685054338   -1.88788717053584    0.40587888407846
H           4.83573020410879   -1.20505491988539    0.50633375653749
O          -1.29095915642434   -0.13758781143978   -1.96870223925424
H          -1.80761472398569   -0.20194344947360   -2.77202815581032
O           0.38075421394508    1.19837431323576    0.88790960819246
H           1.25485393508571    0.95087471422495    1.22948025734871
O          -2.13859348653735    1.79334090414316   -0.42452630508067
H          -1.32504446980749    2.07581427999271    0.00852678078496
H          -1.67749899554657    0.62304799568736   -1.44252329017780
H          -2.63567986705605    1.30124822716970    0.27344500840863
O          -0.78040158111561   -1.22130248103706    0.56382380561095
H           0.06649023568927   -1.69986106125736    0.55886900331593
H          -0.14392530111195    0.36695649499192    0.91870487601017
H          -1.02113747397149   -1.10606729105274   -0.36867648086383
O           1.12175383306228    0.97442501647968   -1.62601416489252
H           0.33225173433481    0.48838415808059   -1.95154088237977
H           0.87340093945958    1.24491778373353   -0.70181088575929
H           2.19205921014493    0.09474323880577   -1.45657449114799
N          -3.15989226482932    0.23859334636300    1.55174123485530
H          -3.07737775552715    0.62826629900272    2.48227524411927
H          -2.44883098533010   -0.48100793982068    1.45424864288043
H          -4.06555182198078   -0.20692005931498    1.47993665272813
