    26
        -50.45620276  Gyration_radius:  2.42261593235 Dipole_moment: 7.326
 S           0.31748521738591   -1.57073735238979    1.52549115549983
O          -0.17932975871938   -2.08010308112188    0.20856444618554
O          -0.55583011219142   -0.51158406396865    1.99908741225896
O           0.61008379094501   -2.61560443259466    2.44204720706339
O           1.70081923789567   -0.87556431728804    1.12772059280723
H           1.56622143375091    0.08984982867863    1.01027064014514
O          -1.86933230535835    1.17722428329700   -1.14073714123858
H          -2.59931573974588    1.45147911897981   -1.69649580338416
O           1.54647080204678    1.73969621362989    0.62222259872277
H           2.14190018067479    2.23704770274490    1.18382490400607
O           0.73088717331552    1.09244013949691   -1.90164087699939
H           1.18480675172405   -0.38451633558264   -1.79967280044246
H          -0.23206951937995    1.13968534434469   -1.72853398681636
H           1.14466295086506    1.49647720238171   -1.11981173180115
O          -2.55486757829552   -0.97299701490658    0.16276051182769
H          -2.55870684052518   -0.70541487322986    1.08846218630745
H          -2.15827244732354    0.32827400604664   -0.69586336382175
H          -1.73969215424629   -1.51649582787058    0.09463111333484
O          -0.90279735742503    2.01668836719868    1.32784497869173
H          -1.37209509251731    1.91226361438110    0.48396463580616
H          -0.88745146532711    1.11990610046543    1.72790145791781
H           0.60960285475762    1.96065337662425    0.93099324282624
N           1.47011856013900   -1.39378520779974   -1.56263566821097
H           1.49388644391396   -1.98363373931716   -2.38756126928901
H           0.72597121038790   -1.76069266754031   -0.82038954080154
H           2.36684375325301   -1.39055638465977   -1.08244489059421
