    26
        -50.45479423  Gyration_radius:  2.47113441981 Dipole_moment: 5.902
 S          -0.60914106719012   -0.84108023473594   -1.83183300439917
O           0.21704531636710   -1.22377278938517   -0.70081225809412
O          -0.86233324176499    0.68276312461880   -1.74385291480332
O          -0.06917936665202   -1.15059856323357   -3.10937450984034
O          -1.99715684227123   -1.45943638758359   -1.66207016705280
H          -2.36688851146245   -1.10699130042609   -0.74428253322448
O           2.47136636525176    1.35375107935332    0.22558445717356
H           3.17274248070816    2.00391705042719    0.16731712221219
O          -0.71975474372468    0.04607259641341    2.51300155556818
H          -0.64991556691177    0.28041922929801    3.43937624351329
O           2.37331962120991   -0.21588493760813   -1.93198866294991
H           2.50061688990444    0.83596097405711   -0.61109811981555
H           1.71207484981921   -0.78741822019987   -1.50569283446912
H           2.06459212332172   -0.13602331972225   -2.83837305730331
O           1.54057604276436   -0.92397953172582    1.63406776054071
H           2.05916820879295   -0.16137863785101    1.33791780721252
H           0.13314659732330   -0.41318539547160    2.27480408859217
H           1.13935739161101   -1.27551626668077    0.82230658884047
O          -0.21277568156133    1.76350987021651    0.45860855258786
H          -0.46272869711510    1.19768710899789    1.21588544541402
H           0.76259972548721    1.72645577358004    0.41036040483198
H          -0.62260218810235    1.10832800637893   -0.84387248019422
N          -2.81567744832814   -0.45202646013668    0.53621580394004
H          -3.02201560055214    0.51792928215488    0.33216726779805
H          -2.08843086481722   -0.47821934927434    1.24844578057044
H          -3.64800582212217   -0.89128270143261    0.90719167332315
