    26
        -50.45479393  Gyration_radius:  2.47090681504 Dipole_moment: 5.897
 S          -0.35963457341160   -1.87260165029917   -0.89397501235579
O          -0.95930771218893   -0.69003166705587   -1.69151313622028
O           0.07882833189735   -1.36697584877980    0.39463461759208
O          -1.30990863857323   -2.92775135850769   -0.83926831507541
O           0.86784947485996   -2.28531337369422   -1.70671139060199
H           1.47071074940348   -1.42854449982805   -1.78396317116076
O           1.96711903301730    1.67282676874956    0.40505245557990
H           2.38560049219721    2.46697235673440    0.73978059356154
O          -1.98455869362470    1.27133547717581    1.55941507566492
H          -2.76320025030843    1.74826171417867    1.84970445255085
O           0.63121270912040    0.46752293524130    2.29827064089347
H           1.57064807557764    1.21055712791759    1.19525214635533
H          -0.25323698077898    0.86247610416285    2.28965876391034
H           0.53604775518375   -0.35273889507602    1.78686438600584
O          -2.45843173499119   -1.33814508181695    1.25479376361755
H          -1.51122712624117   -1.50974559172638    1.11643575655844
H          -2.25504681481844    0.33019334119463    1.45870988506139
H          -2.89501270994785   -1.89590030499443    0.60556431688380
O          -0.51722131014319    1.60931013422769   -0.71274241177507
H          -1.08723199413944    1.59420331325632    0.08076261891158
H           0.39938589869417    1.67988101826039   -0.37952508395648
H          -0.75598887715681    0.23638430148302   -1.30569567030642
N           2.18513645428744   -0.10775901919665   -1.90359113209784
H           1.66024297432748    0.46993077244886   -2.54838987338565
H           3.12498101862723   -0.22221002289864   -2.25972041793824
H           2.23224445912944    0.37786193883787   -1.00980387827132
