    26
        -50.44540635  Gyration_radius:  2.75909688489 Dipole_moment: 1.150
 S           1.93464301761253    2.06957679906735    1.11072787558697
O           2.64580065524285    1.91881558384294   -0.22634663801948
O           0.69104020511610    2.76756790215797    0.94112293648948
O           1.86945485802694    0.82732448587351    1.81084106584435
O           2.91740120325115    3.01545546769761    1.88897676741627
H           2.80040642820436    3.87630686586931    1.49448082297167
O          -1.05981537426114    1.08471785436836   -0.25596561443499
H          -0.69992214319757    1.85920985634721    0.20529004875143
O           0.70782993919335   -1.83421049807964   -1.30153385978414
H           1.00664445013885   -2.57510393347848   -1.82897298578876
O           1.07933615078694    0.77903864058500   -1.75427379907332
H           1.16626478476317   -0.19531624329209   -1.65976769074088
H           0.19841632901669    0.98308073275450   -1.33987252030863
H           2.00552121103049    1.42607819730407   -0.93777169695440
O          -0.07581126168234   -0.94281635097630    1.23693487260470
H          -0.87801702701573    0.32860731498120    0.34629495852200
H           0.34537143162640   -1.42504821308477    0.50847109210125
H           0.62670420827056   -0.39663366983002    1.63007510155469
O          -1.81706647983856   -1.30451926878086   -1.72067352729516
H          -1.84663674876928   -0.35002074406663   -1.58954126221089
H          -0.25986570697573   -1.69845688860885   -1.52526827574241
H          -2.24724127832589   -1.68136918028123   -0.91490474776104
N          -2.74844705601024   -2.10013518028391    0.70094620670145
H          -3.53371538695076   -1.56504466785388    1.04955930306727
H          -1.91916423250374   -1.79420763507876    1.20269009444225
H          -2.90913216665496   -3.07289722720397    0.92848148204466
