    26
        -50.45620278  Gyration_radius:  2.42258375735 Dipole_moment: 7.325
 S           0.94774123861895   -0.93106662920322   -1.76882986335053
O           1.88970377201681   -0.15154383038509   -0.98536267615535
O          -0.25640275502379   -0.09832248241971   -2.08045802286846
O           1.46436592961869   -1.59698630322262   -2.91212067459062
O           0.35343873538869   -2.04499513785061   -0.78847778009371
H           0.51591574541512   -1.78754185029778    0.14494572425406
O          -0.24621955607440    2.23784192978696    1.05492108865715
H          -0.48950522048025    3.12828076644264    1.30969340411105
O           0.55931598709695   -1.48670772257913    1.81247731903771
H           1.03202870838886   -2.17661523308594    2.27924988534157
O           1.97411853186470    0.63324968062304    1.53267017152450
H           1.16425186704759   -0.67688739856488    1.80873242279890
H           2.12512954987636    0.40594732161842    0.58927715217057
H           1.29829579267078    1.33069903362570    1.52266784548909
O          -1.70887774053893    0.01133898304166    1.55587638180911
H          -1.26423278454112    0.87142237653126    1.40750773720800
H          -2.09889919251760   -0.59248674499238    0.18436725350775
H          -1.00291584232550   -0.58525939904241    1.85820259257415
O           0.64052490502910    2.26762045001960   -1.39569374548562
H           1.56540631187805    2.00718117993817   -1.32288048866793
H           0.21557783259247    1.46607498957981   -1.77190475980780
H           0.04427951601510    2.28864881458719    0.09830219441115
N          -2.20303974374382   -1.03407449177186   -0.79051193605806
H          -1.39140269459420   -0.59970078927491   -1.41645584443697
H          -3.11754574414478   -0.85465555172695   -1.19110517053785
H          -2.01105314953468   -2.03146196137821   -0.73509020084174
