    26
        -50.45620270  Gyration_radius:  2.42261932486 Dipole_moment: 7.327
 S          -1.03723733942995    1.73078261307026   -0.90750059415867
O          -0.11381484128537    2.13026379144229    0.13960786763068
O          -1.95047226267683    0.66299410053439   -0.39119438936656
O          -1.73451916630135    2.77190694355159   -1.57627929053566
O          -0.17338601723089    0.94800679842473   -2.00123851901776
H           0.67888232230192    0.65973862370812   -1.60805702600003
O           2.13558412757657   -0.05101091906168   -1.11311713045669
H           2.87471977174006    0.27434521239270   -1.62813319550169
O           0.41744585424784   -0.99041478834901    2.24232205931491
H           0.37847513600668   -1.44464135899055    3.08442065086626
O           2.03022073214303    1.02640594533501    1.21094361645863
H           1.62038419095550    0.32516257139570    1.74346577727619
H           2.21335228414309    0.37467876417225   -0.19953830870321
H           1.28576613787765    1.59342662787058    0.91293344985509
O           0.72423526905943   -2.18921058586178   -0.16954813882949
H          -0.54383537365557   -1.87029843278739   -0.99939438035573
H           1.38945863590627   -1.59916578313269   -0.56333539323990
H           0.59855371003397   -1.85295119877397    0.74182357539584
O          -1.44172591816442    0.83486444951982    2.17442292308030
H          -0.96223559032034    1.66929864835882    2.12587325619765
H          -1.79163625271254    0.72914054686425    1.26281366856242
H          -0.33782582729408   -0.33344327091967    2.24213563934359
N          -1.37441414658736   -1.48662111303408   -1.56421185948043
H          -1.70254761244713   -0.55951408123752   -1.04254252966571
H          -2.12891836504233   -2.16118492895450   -1.63272258603078
H          -1.05450946884407   -1.19255914553806   -2.48394912263999
