    26
        -50.45620279  Gyration_radius:  2.42257727544 Dipole_moment: 7.325
 S           0.18249120643709   -1.07904713321621   -1.92254431049753
O          -1.06588631945299   -1.38907929439883   -1.15704880891284
O           1.33977199348143   -1.27640831454452   -1.06784749643989
O           0.21427665039479   -1.70646946676952   -3.19643619550949
O           0.05831762599269    0.49635978265425   -2.16296575326282
H           0.57482320809391    0.97858898616860   -1.48131350541667
O           1.27529531347639    2.01677485776794   -0.33918033559182
H           1.91233177158611    2.60458781984235   -0.74657879773579
O           0.14180440843527   -0.44893101428368    2.44120814451284
H          -0.00130242476424   -0.69997826632722    3.35415471561291
O           2.40657950127628    0.09139854856839    0.92073519438785
H           1.80779728660664    1.33553985453755    0.18436031774611
H           1.76638962493342   -0.09563535192652    1.62673529894590
H           2.17249508331535   -0.52188646009749    0.19028985438474
O          -0.02873754556265   -2.57221917314708    0.93950444930641
H          -0.54877426854932   -2.23670065124225    0.17686125047768
H           0.85395192394682   -2.67915245053919    0.56812591032733
H           0.02337236592098   -1.28188378129550    1.89876834170245
O          -0.94204472546413    1.71780568547908    1.22569523477387
H          -1.83385630711995    1.19222884244264    0.07408727509316
H          -0.61542721127572    0.95472395689025    1.74581517033093
H          -0.15962181285816    2.05112465514923    0.75408890409023
N          -2.30899787724174    0.76739639333588   -0.79192071160753
H          -1.82706962381112   -0.22254483447367   -0.95626109897310
H          -2.08647153218150    1.32709410423564   -1.61164680127000
H          -3.31150831561354    0.67631267518937   -0.66668624647665
