    26
        -50.45620276  Gyration_radius:  2.42259870839 Dipole_moment: 7.326
 S           1.52662140834561    1.41659607717738   -0.74655363165706
O           1.11924198668714    1.64036396384079    0.67629764716947
O           0.34626588980406    1.38336183777698   -1.59179817724550
O           2.58195557763217    2.27463819030297   -1.15581356985290
O           2.10240373289975   -0.07413980984562   -0.71106336188816
H           1.40842009391722   -0.70572932158942   -1.00002782321497
O           0.34103700765695   -1.98049514362992   -1.32921799153353
H           0.64987904234208   -2.51330716515673   -2.06274588121961
O          -2.41192568429640   -0.03553639273132    0.60272201841640
H          -3.27256491962294    0.04319797968565    1.01510105155611
O          -1.55426365641293   -0.39700139868214   -2.01765459790285
H          -0.92486923052320    0.35686465892985   -2.01093715701545
H          -0.44151122683636   -1.44235753328691   -1.67541907351850
H          -2.06151109981605   -0.31399452107157   -1.19359153131049
O          -0.52425387351495   -1.86728769405483    1.25778986368049
H          -0.24926421042124   -2.14617026135041    0.36767983825499
H           0.71163764683374   -1.08340816879382    1.76380823622138
H          -1.25861453038851   -1.23672161761789    1.10753350153722
O          -1.38177203782165    2.34238827371471    0.32524286426322
H          -1.31713334417942    2.46983656993466   -0.62771791596090
H          -2.03618317909228    0.89118766017211    0.55719174393256
H          -0.44869044131449    2.18799361951106    0.58995038702447
N           1.57706346369323   -0.47547645889876    1.95781997283291
H           1.39021085458903    0.50006807333860    1.45510148924364
H           2.38777299323415   -0.87887541764430    1.49442325296150
H           1.74004772660146   -0.35599599003287    2.95187883522434
