    26
        -50.45620277  Gyration_radius:  2.42258552895 Dipole_moment: 7.325
 S           1.44082749026357   -1.52162226792392   -0.70896513151811
O           1.40327392358228   -1.35294521476142    0.77788678932879
O           1.64718524385421   -0.23049496250169   -1.34074263569117
O           2.29704589220400   -2.57805508639975   -1.11920304382613
O          -0.05977472550117   -1.95765412509898   -1.04547324538940
H          -0.57780371290301   -1.17390922113099   -1.33065222000142
O          -0.00819258992121    2.28864121056046    0.97138539919762
H           0.03925779861963    3.06745561718469    1.52652920452610
O          -1.69429615768507    0.04265687499359   -1.71334432577650
H          -2.08864473433258   -0.10390224983316   -2.57376337598964
O          -2.04412788829124    0.49916568835903    0.95569412011284
H          -2.15693273063334    0.38595306621408   -0.00356133432860
H          -1.45231302042033   -0.86407942161327    1.39070055774576
H          -1.35319926017887    1.18736961331808    1.04768381982759
O           2.31033765457296    1.09823231064042    0.97780534888682
H           2.05038640595670    0.15406257293521    1.05257435603219
H           2.62042323412779    1.16500034019396    0.06790255525197
H           0.88451393833321    1.84073257806604    1.03863512555970
O           0.10610378678661    1.86716630333854   -1.77487738555486
H          -1.05167841213032    0.81555901578736   -1.82044502876278
H           0.05436593866932    2.23637147351140   -0.87804886641495
H           0.80398545659957    1.17761320278376   -1.73073916458931
N          -0.94849284830693   -1.80033842622456    1.55123898901367
H           0.11679539272574   -1.63091757956878    1.27608015968200
H          -1.30063192863627   -2.49361906939702    0.89544346709392
H          -1.03841413735510   -2.11844224343211    2.51025584558482
