    26
        -50.45620268  Gyration_radius:  2.42264033388 Dipole_moment: 7.329
 S           1.02335401093383   -1.70989709596358   -0.96178876734617
O          -0.35094956951449   -2.01780178692963   -0.45473954399218
O           1.81570742890111   -1.12199207999747    0.10372315833350
O           1.60490504060408   -2.79864313484921   -1.66441995473792
O           0.74823098494153   -0.54363243090663   -2.01988409948701
H           0.90344460737613    0.32993002266251   -1.59947336138123
O           0.97586388665368    1.93343495314678   -1.05474893900523
H           1.61445715510931    2.44310131063347   -1.55439855119449
O          -0.66848850748347    0.76967617939255    2.26823536855530
H          -1.08564893018470    0.92603690717415    3.11592750353741
O           1.87280217422130    1.25449113631477    1.24915128363948
H           2.01458122843848    0.33921058279759    0.92254715713424
H           1.38727636791228    1.77018505183575   -0.14593897738595
H           1.06141405182865    1.21320157109838    1.78135719137088
O           0.04452293615599   -1.73285441215398    2.12085086570292
H          -0.45292072238091   -0.20739296682047    2.23710151542561
H          -0.21651169624359   -1.96127613966365    1.20200805790063
H           1.00662440134390   -1.70880464598302    2.07185170307055
O          -1.57589077253996    1.68779294413549   -0.11542936946945
H          -1.90290957413823    0.44808445007347   -0.98399029959170
H          -1.33995950340539    1.38829136274047    0.78684308066980
H          -0.73985485885221    2.00170355748142   -0.50038251722527
N          -1.96370859088625   -0.44667031166154   -1.57712495427478
H          -1.30649316258391   -1.19454751345460   -1.07927338731212
H          -1.55268703776727   -0.27766352469977   -2.49213688018173
H          -2.91716133843964   -0.78396399640330   -1.65586726275579
