    26
        -50.45620272  Gyration_radius:  2.42263605091 Dipole_moment: 7.328
 S           0.41504482792161   -1.01102154190648   -1.92370595853264
O          -0.85524948610159   -1.44394131972659   -1.26072805739268
O           1.51885741959504   -1.13134964387151   -0.98785745761395
O           0.59453166311982   -1.60187199591188   -3.20278802928837
O           0.17437323284291    0.55394089176786   -2.14364109422326
H           0.59575190602777    1.06047170630895   -1.41575934264772
O           1.11778303160079    2.12490909643127   -0.20411978498499
H           1.72982434435121    2.77504210211504   -0.55068148012000
O           0.00081213228569   -0.49807100946319    2.43618662826590
H          -0.18643005533340   -0.78351636560064    3.33086930778376
O           2.31544906862294    0.27094738182034    1.10076958125329
H           1.64378101868077    0.01234927458894    1.75292707044089
H           2.18935931817231   -0.34123425561374    0.34326718669542
H           1.66713328935813    1.47813169834425    0.34506138867184
O           0.12306825371227   -2.58879950234191    0.88493721924030
H          -0.00577775819088   -1.32383174397530    1.87039475297351
H          -0.36691197704647   -2.27905919541048    0.09210231610344
H           1.03642314582338   -2.61097065705602    0.57874325397720
O          -1.17342385981850    1.60023521816117    1.18501104551371
H          -0.39021794100748    2.01043964020300    0.78000419329446
H          -1.92960904443542    1.03135835257376   -0.04084311812806
H          -0.82133122880460    0.85424445763161    1.71320559122990
N          -2.30129955544979    0.59086721046727   -0.94853567524874
H          -1.72603961953781   -0.35077971453106   -1.09510029057726
H          -2.06691821165523    1.18813971783735   -1.73794173339034
H          -3.29898390473313    0.41337020715724   -0.90177750329530
