    26
        -50.45620276  Gyration_radius:  2.42260128522 Dipole_moment: 7.327
 S           0.32804814869521   -2.18682414427129   -0.06651402536594
O           1.52950317262690   -1.43933041414879   -0.39278392303128
O          -0.80800965976566   -1.70672115596121   -0.91465232870894
O           0.44049487600763   -3.60264728706493   -0.05129937765111
O          -0.11302739005901   -1.72162774551355    1.39782280224033
H           0.31966054644244   -0.86884296470887    1.62027523423331
O           0.30976758393607    2.00283948716268   -1.44069509277175
H           0.25041052029514    2.70420229035560   -2.08998541399817
O           0.83792374192856    0.65097205943611    2.16357640824528
H           1.33180515107031    0.57947211941533    2.98102409323855
O           0.51285566888231   -0.28340905650812   -2.67548973560838
H          -0.08900691786237   -0.85084072610745   -2.14593913097061
H           0.34047590224921    1.14495913148697   -1.95561349424334
H           1.38609462138498   -0.61262050139539   -2.43541674647574
O          -1.22199097750596    1.79723217558269    0.78629879777795
H          -0.73362864330152    1.94896449437424   -0.04912497112301
H          -2.03000828082980    0.48218273913322    0.66113341084470
H          -0.53726174819076    1.56498657315108    1.43658932901258
O           2.36981710755646    1.00515389967178    0.13825755524903
H           1.80342434884930    1.51996618381804   -0.45963184431315
H           1.51212312120380    0.85363802506364    1.43820045296464
H           2.23770522192611    0.06789536637326   -0.12361480355341
N          -2.44000394385437   -0.50840541276526    0.57852134174037
H          -1.77778884859115   -1.06074226752179   -0.12543500805807
H          -3.40019595873633   -0.49411207006011    0.25165642075731
H          -2.35918734435745   -0.98634080899872    1.47284002956867
