    26
        -50.45620278  Gyration_radius:  2.42258478454 Dipole_moment: 7.325
 S          -0.97799417588618   -1.42036684617662   -1.38569254380847
O          -1.90074889961659   -0.40178697334588   -0.79272398711205
O          -0.25271458376171   -2.09677532030876   -0.32493849710136
O          -1.61816031170808   -2.24496323196035   -2.34884877616177
O           0.08764815721904   -0.51332666247265   -2.15824687745126
H           0.88362303008813   -0.38495017975338   -1.59790996226588
O           2.28358799279535    0.08391026711400   -0.76541939714148
H           3.07439138662321   -0.19643137633158   -1.22733242464317
O           0.11824095082206    0.48780983750943    2.43506912779329
H          -0.02618377648092    0.76860276838543    3.33910410366990
O           0.86336325286883    2.10752739661092    0.39332291012618
H           0.57906650522806    1.61017081504103    1.18786381752845
H           1.54745887578154    1.55146719515794   -0.01717141030694
H          -0.27687681350796    2.07041853431990   -0.65373814256022
O          -1.80732004744567   -1.11934766300439    1.72666101044133
H          -2.00460301479453   -0.80620446352270    0.81692422943947
H          -1.37365175156338   -1.96616158567098    1.57380570132166
H          -0.66345329255236   -0.08805584147081    2.19133406562964
O           1.75679140023140   -1.41781060612842    1.24488791796071
H           2.19399248331785   -0.51877730650361    0.04112291115790
H           1.30898406305090   -0.80261876893722    1.84843815942631
H           1.03726007218673   -1.84777892173504    0.73315371149613
N          -1.03047213815258    1.88002920069507   -1.39673575244874
H          -1.72632546175969    2.61750446379496   -1.42709241800244
H          -1.48670240850530    0.89967805914497   -1.13210646192983
H          -0.58920149447829    1.74823721954962   -2.30373101505657
