    26
        -50.45620274  Gyration_radius:  2.42259820928 Dipole_moment: 7.327
 S           0.29602936292987    1.70796419252098   -1.37467971132397
O           1.21485905103012    1.73887857378906   -0.25064516096290
O          -1.10611725142375    1.55555105731859   -0.87336611720021
O           0.42501563697426    2.74727032524860   -2.33416840751843
O           0.54652973453570    0.32065972428257   -2.12831053803458
H           1.02101322889890   -0.29980293847429   -1.53347201378324
O           1.70476932491225   -1.57438780391878   -0.64970113922387
H           2.51211758713859   -1.88847020216879   -1.05816647711167
O          -0.39383476177618   -0.43613171929206    2.41603400499589
H          -0.74669838301021   -0.54841077991441    3.29910965872988
O           2.16846375212873   -0.09352397223703    1.39147651813364
H           1.38750051653230   -0.25717033567913    1.94523523558834
H           1.98199769422106   -1.06059448880794    0.17544694535849
H           1.94718033502168    0.70311360090633    0.86152241299419
O          -0.76938921130054   -2.15085208719910    0.35073595106999
H          -1.52951048365159   -1.37275832111418   -0.75139948568842
H           0.13659554218081   -2.18697798428555   -0.00083659329103
H          -0.70654023729862   -1.58711342484092    1.14930831283981
O          -0.72958973398576    2.03995909112657    1.67513506699505
H          -1.02380767905696    1.93243336249830    0.74430981400113
H          -0.58344765868301    0.51169998686381    2.15585701856915
H           0.16381230819052    2.38832850789986    1.57992357472821
N          -1.91909688515096   -0.73452517479232   -1.52409134263978
H          -1.63190554543018    0.30369968170306   -1.24352450408057
H          -2.92445659129912   -0.82866050339441   -1.62108776870476
H          -1.44148965262870   -0.93017836803866   -2.40064527444037
