    26
        -50.44480461  Gyration_radius:  2.71559650777 Dipole_moment: 5.493
 S           2.47076969937176   -0.50364547501086   -1.61421230824921
O           1.70621924885483   -1.73728476900198   -1.69129415804178
O           1.61010851181354    0.65384008642949   -1.92995615895020
O           3.19472988782811   -0.31350217817732   -0.38696830980443
O           3.53392512365272   -0.58281980420250   -2.78443784382700
H           3.08111100624305   -1.08651079365519   -3.45422074806298
O          -1.32336526618200    2.32055371734292   -0.02917991183462
H          -2.12724262961124    2.83423590497232   -0.11099001652233
O          -0.21965472077075   -1.39702816522927   -0.00010245390262
H           0.48442350532485   -1.75870059308889   -0.59409860710848
O           1.20830919638543    0.62788594770166    1.02182757931115
H           2.05931229072984    0.29279181863344    0.65901304999326
H           1.05290374306095    1.45333833679314    0.55201291544106
H           0.26159153807510   -0.76754797329287    0.58249531687414
O          -1.26512390418476    1.16124990316082    2.28622453467733
H          -1.74332593803905    0.29746111382543    2.22215482320164
H          -0.32625016150336    0.94138351118896    2.32127442463374
H          -1.32900097469242    1.91990214444042    0.89349502683474
O          -0.81969756687524    0.41207143280201   -1.63640706853335
H           0.21943621662432    0.54667317788484   -1.87695678518860
H          -0.75337473684671   -0.40004156222505   -0.98370839681041
H          -1.06208071251249    1.22002575185344   -1.05037355348247
N          -2.41293888230523   -1.27473801365872    1.95902005713187
H          -1.78993773008205   -1.66327655496115    1.25662204465053
H          -3.35903383600697   -1.33743925659418    1.60546598486691
H          -2.35181291839195   -1.85887769788153    2.78330058267527
