    26
        -50.45620269  Gyration_radius:  2.42264736706 Dipole_moment: 7.328
 S          -1.15557995792324   -0.73859372574550   -1.73628953174337
O          -1.59146125853267    0.57707170116244   -1.30314111969763
O          -1.13531733713759   -1.67173032016625   -0.56606292769667
O          -1.81606831622178   -1.29068507825442   -2.86603257654287
O           0.39538731681680   -0.60637963063823   -2.10004700519843
H           0.76480948360816    0.20572130954833   -1.69018142788378
O           1.64641618646817    1.46432334823081   -0.97453741490761
H           2.05396369248242    2.02477332182245   -1.63564839522417
O          -0.38933919318996    0.89700594753738    2.28649317100070
H          -0.56958665828670    1.03680389066580    3.21652223873415
O          -2.46039448819582   -0.23427318122685    1.18014095336128
H          -2.03684566908478   -0.90753349230199    0.60404320706044
H          -1.18806533161707    0.42266244499508    1.91354622770789
H          -2.78427317833207    0.41715546105220    0.54814985790660
O           1.93124989225158   -0.06581393291977    1.26869216793308
H           2.05477078296626    0.55103920354450    0.52712699006668
H           1.13008477862358    0.25544010233072    1.73169895238410
H           1.59367183767001   -1.39527582571243    0.54980612866072
O          -0.44808743618175    2.53798034344336    0.04252176964135
H          -1.01300813385604    1.93848418232319   -0.49221805641052
H          -0.45558828454065    2.16419858539602    0.93893816627104
H           0.87668117094442    1.99215467932875   -0.58636116056792
N           1.26512749868279   -2.22269167951178   -0.05314063230513
H           1.72833298969217   -2.18999948265524   -0.95816138730002
H           0.18427648011905   -2.04967407490245   -0.25553713845590
H           1.41884311277615   -3.11216410734954    0.40967896320201
