    26
        -50.44721208  Gyration_radius:  2.51048564627 Dipole_moment: 3.932
 S          -2.09562580040400   -0.17713745445406    0.30988778291214
O          -2.01189737743066    1.27980072069628    0.52027117504929
O          -1.37861278408763   -0.55545083651751   -0.89840544186772
O          -1.71808592779457   -0.93662238317512    1.46698495205752
O          -3.62628770436564   -0.44663787168285    0.02978496610946
H          -3.80179541834082    0.20073350290642   -0.64474385220695
O           1.84254166545971    0.31756530449544    1.10642978403031
H           2.56256970724422    0.40761454695143    1.73251305586181
O           0.80979099555802    3.08947786943557   -1.16194908585829
H           1.67572620381026    3.46867362523993   -1.31990830618167
O           0.15230475047424    2.23476097123317    1.14704237560596
H           0.80757454934749    1.44786088114683    1.20385787693581
H           0.39128976304525    2.72093535594418    0.27597776788463
H          -0.83198929731973    1.81600921178656    0.93678123462417
O           0.96679444569890    0.51994504117665   -1.57408106471816
H           1.47583594438096    0.26184374452359   -0.79364131842305
H           0.07710273026209    0.13232481538937   -1.43938777656137
H           0.84072755784283    2.15060334911629   -1.49904148011803
O           0.75106621378871   -1.90784882131647    1.57867209680413
H           0.75257246696854   -2.38528254041122    0.71266755563756
H           1.40973832923512   -0.59650151564659    1.31575375720990
H          -0.18390602357857   -1.64585969955659    1.70139162282030
N           0.40461237965759   -2.83315158617437   -0.92895112281494
H          -0.01485533115148   -3.74371006696451   -1.06693268328944
H           1.07375328627794   -2.68512990950677   -1.67430925894553
H          -0.33094535470984   -2.13481626441969   -1.03666462229677
