    26
        -50.44480580  Gyration_radius:  2.71553193612 Dipole_moment: 5.497
 S           2.08687988576804    2.11193454746061   -0.38443774902971
O           0.98183538243484    2.50621704823824   -1.24260906807198
O           1.59794759478717    1.79946216530084    0.97279989570182
O           2.91692544143981    1.06154260748377   -0.90860426996861
O           2.99149440389078    3.40247608367652   -0.23253323824004
H           2.36472915432266    4.11493409582223   -0.31562931142162
O          -0.55673957713043   -1.09760200715739    2.37275071613675
H          -1.17045355189374   -1.36777406384124    3.05621445321706
O          -0.63193246626892    0.48830821888161   -1.16417604365996
H          -0.11227274286484    1.29410727782909   -1.40976109444094
O           1.40882139204400   -0.93997631188739   -0.17802865257919
H           2.09163128099530   -0.32612726021264   -0.53206208162142
H           1.47963316025090   -0.85477199763002    0.77801380967009
H           0.05602896251023   -0.18926371568671   -0.97619700945682
O          -0.69394566246827   -2.74754561090700    0.38083123105346
H          -0.62001041212059   -1.78372090324947    1.63992316829123
H          -1.41523042586721   -2.45109351312504   -0.22796594234004
H           0.13390668882537   -2.52166878764074   -0.06041872409697
O          -0.76589374789295    1.17580981014657    1.24702877972904
H           0.24494545511652    1.53559122734187    1.20611755248560
H          -0.90371217707283    0.90306005790134    0.24767838949733
H          -0.71160137274082    0.29373630727123    1.77028538225263
N          -2.54819074603796   -1.74042362486198   -1.32425491244195
H          -2.61422351708359   -2.25528501916783   -2.19314309871286
H          -2.12116146995129   -0.84125645124933   -1.52821037244094
H          -3.48941093287942   -1.57067017068479   -0.99361179951359
