    26
        -50.44495268  Gyration_radius:  2.70040491075 Dipole_moment: 4.628
 S           2.38021567133708   -1.10786427190034   -1.36955020664381
O           1.22546981917183   -1.45416099921760   -2.17961367233500
O           2.54174585556382    0.35599268751659   -1.29029548083925
O           2.38350403700324   -1.72443130360172   -0.06685096715703
O           3.65520534260711   -1.62904860613727   -2.14388290770388
H           3.54901082497823   -1.23080080684126   -3.00236112764101
O           0.71349209421168    1.13065788488465    0.16503973961922
H           1.55627818427002    0.92568010779699   -0.45529656290954
O          -1.41618844801539   -1.45125611553691    1.38524836202628
H          -2.01564443939373   -2.09076954981444    1.76989704576033
O          -0.86960177595566   -0.39114105767751   -1.08698406915014
H          -0.15953137364389   -0.85483111656727   -1.60245168724330
H          -1.13629940760490   -0.99962352650310   -0.37509672451742
H          -0.04230302956994    0.63101617926808   -0.34629294034939
O           1.12127155351313   -0.60170210172655    1.91857006082516
H           0.89227454187559    0.51362798528641    1.01086835202865
H           0.27975693640384   -1.09535818033161    1.89497545867251
H           1.72968341916955   -1.10970195927750    1.33040458794606
O          -2.02101647529608    1.02770132248946    2.01707277065365
H          -2.17632046737480    1.47384242509525    1.14408071160124
H          -1.73436379513060   -0.55245169589056    1.66808815937019
H          -1.24660935757527    1.44501117865195    2.39971822712586
N          -2.29522655354349    2.12824077660699   -0.43322367916196
H          -2.10574037118148    1.32872926217387   -1.02954048397601
H          -1.60369862667611    2.83751104953339   -0.64284652221022
H          -3.20536416919183    2.49513041176160   -0.67967642375163
