    26
        -50.44495274  Gyration_radius:  2.7005368641 Dipole_moment: 4.624
 S           2.49052535757193    0.85472554817032   -1.35492446947045
O           2.86804293719143   -0.13067755933001   -0.35713276004435
O           1.60385694102046    0.25596338564256   -2.37008555644710
O           1.93789755765194    2.06407095735125   -0.79874406851731
O           3.80956216572862    1.24921811345520   -2.13026225515939
H           4.14228935798113    0.40205937719605   -2.41040729021097
O          -0.54989637951605   -0.08481145124500   -1.22761736371265
H           0.31487052710129    0.03046585963900   -1.84091055961593
O          -0.60781800453530    0.94809624533014    2.18196716185526
H          -0.70556476206096    1.22343144410095    3.09352835213210
O          -0.60394736329538    2.20864859385635   -0.23791539514423
H           0.33838678140939    2.37667116096366   -0.47838460583571
H          -0.71488965209219    0.90189336793876   -0.87093190736202
H          -0.58629991063607    2.00270048960240    0.71585340477224
O          -2.77586466674827   -0.18162690385010    1.21558033494257
H          -2.48002021601087   -1.08875088638340    0.94177012380712
H          -1.46705893215080    0.52390648409264    1.91585702367340
H          -3.02748845541602    0.27489706038953    0.41026388597779
O           0.70289014701495   -1.00441217557411    0.76597220356489
H           0.47088340236258   -0.34599640247264    1.44481477272107
H          -0.15080159140159   -0.57873457546096   -0.40356519303084
H           1.60275923711844   -0.75616976808689    0.42886286919034
N          -1.79592052204069   -2.56660745938698    0.41469582639726
H          -0.81936121278860   -2.47504295610574    0.67669299573961
H          -1.83240500135957   -2.70819332891130   -0.58723177016457
H          -2.16462772217866   -3.39572464091393    0.86225422999741
