    26
        -50.44721205  Gyration_radius:  2.51043402184 Dipole_moment: 3.931
 S          -0.99728839341676    0.68923288661200   -1.74596855894316
O          -1.32134931445650   -0.73912897768170   -1.91470607349749
O          -1.27627715503345    1.11322132232182   -0.38233116890127
O           0.32281347410174    1.02478229846497   -2.19648960646210
O          -2.03259412675641    1.43957001440067   -2.67292080311844
H          -2.84821261975135    1.03971575931891   -2.39062020287521
O           1.79170579519111   -1.07086120196644    0.60067322331837
H           2.64089254921111   -1.50210731099944    0.70770773775201
O          -1.43529080245958   -2.84245747698962    1.18904283812594
H          -1.15388063727523   -3.40555014754437    1.91179819313063
O           0.09980164669813   -2.38566518981254   -0.79315660336270
H           0.82257743158246   -1.85175006673488   -0.29877509852490
H          -0.54358804124671   -2.70781777707145   -0.06208158882277
H          -0.49942171168727   -1.66836243140214   -1.35424056398114
O           2.25833269262215    1.20351360186422   -0.38729449689427
H           1.81935390076151    1.84534552327253    0.22369846010437
H           2.00371960020988   -0.14453572593009    0.19605057475762
H           1.67966859374069    1.19673581742411   -1.17662982313077
O          -0.70752989367737   -0.40013514844034    1.73903769408248
H          -1.01652192619929    0.18281181941406    1.01468142386411
H          -1.31722695647176   -1.90002984257988    1.49565916225330
H           0.24684853112352   -0.48223813182401    1.60759583050858
N           0.60908061176936    2.73548816032466    1.09493200788448
H          -0.16703021381558    2.31818154249163    0.58125636523142
H           0.58247235550226    3.73399463303879    0.93251386350314
H           0.43894462977581    2.57804605026227    2.08056720383715
