    26
        -50.44480593  Gyration_radius:  2.71547939036 Dipole_moment: 5.494
 S           0.43631723510878    0.95485265183993    2.80371290288076
O           0.12001833685626    1.92483472552168    1.73697742231260
O          -0.60950387963128   -0.05006818200436    2.90102045246235
O           1.76923017361273    0.43221272683453    2.67261131532535
O           0.37505695703238    1.76815612185389    4.16078287124034
H          -0.54285918852422    1.70487944874789    4.40726900053971
O          -0.69772325375502   -1.10137020216083    0.54095986360135
H          -0.74394122680997   -0.91383092307610    1.51169796056594
O           0.01410328221171    1.62528862539359   -2.12187270342046
H          -0.37064584338041    1.96332774401510   -2.93085710334369
O           1.70134613767380    0.00617293090432    0.09793965557177
H           1.62762556003906    0.91360381550336   -0.21417374372312
H           1.90872491455616    0.09036648092919    1.05619093615288
H           0.24002573013806   -0.91682363809226    0.30816948097640
O           1.05408635344821   -0.70555906668478   -2.56246979716041
H           1.61670103987076   -0.77080601936360   -1.78127538913004
H           0.35181726830037   -1.39314681193005   -2.44882657665413
H           0.43365045925216    0.73986178566401   -2.34943236604138
O          -1.41645898365719    1.23005468903733   -0.05397591747717
H          -0.89003737965806    1.45249840641053   -0.90738789715360
H          -1.28028647730004    0.20609161437809    0.10253881412292
H          -0.82119649127941    1.62383770802745    0.74850970325589
N          -0.88592034934699   -2.52490819107979   -2.02823023472642
H          -1.06334477899141   -2.30250757682006   -1.05277402627047
H          -0.56035734013412   -3.48221627725072   -2.07265160179790
H          -1.76642826537413   -2.47480256579658   -2.52445305243949
