    26
        -50.44495240  Gyration_radius:  2.70080631101 Dipole_moment: 4.635
 S           2.09119148117279   -0.73431692515379   -1.96540217482179
O           1.24762543579946   -1.90277210509541   -1.78469930775872
O           1.31526116188023    0.38763358317088   -2.52611566969818
O           2.81749418469120   -0.35182406024633   -0.78072699402949
O           3.15411148112333   -1.10514881780608   -3.07421309469194
H           2.60335281939157   -1.40194356370545   -3.79213294319900
O          -0.13994179999000    1.14766457868752   -0.69163359112204
H           0.44868361495674    0.93355456416609   -1.55463119850025
O           0.22310240066937   -0.67406871877149    2.34928020180485
H           0.28330928846537   -1.10191170315498    3.20347793335535
O           1.69668152160818    1.18526587866625    1.00195877431680
H           2.31088885897316    0.69568814653930    0.40429037804190
H           0.59574184795979    1.31071904011551    0.05655793004755
H           1.37976192652360    0.51636390009001    1.63805376633971
O          -1.60639659630740    1.21186780959184    2.27531741888503
H          -0.49938283663062    0.00585831712253    2.41836055461331
H          -1.19715356588212    2.02497560506431    1.97266185977701
H          -2.22553101985207    0.92523779483972    1.55430852203833
O          -0.67947228696778   -1.26678146665912   -0.17418174330392
H           0.00080299500170   -1.64405589728657   -0.79061884964687
H          -0.31176272317668   -1.34570664380061    0.72404717817619
H          -0.51660412385514    0.20513874539143   -0.46256582925831
N          -3.13082120320326    0.36161562220418    0.21550296393055
H          -4.09476018572739    0.12900149611750    0.41637522038020
H          -2.64892558962322   -0.49234863245686   -0.04743666153070
H          -3.11725705716044    0.98029346222596   -0.58583464415329
