    26
        -50.44480581  Gyration_radius:  2.71555877751 Dipole_moment: 5.486
 S           2.06643932316089   -0.33385637483330   -2.14027114736196
O           2.64408756747273    0.60655229317442   -1.19420043329493
O           1.54314163646486   -1.51899390430788   -1.43274887389216
O           1.09166951840985    0.22793786073118   -3.03536914071184
O           3.27631433087242   -0.85344115219715   -3.01937492611601
H           4.01587393123446   -0.79760247781353   -2.42165801771997
O           0.70548492650232    1.14487232112659    0.42922797360992
H           1.52126202505494    1.15821488990025   -0.13101926200196
O          -1.46863958798379   -2.02198801808091    0.94690901869788
H          -1.82960318813637   -2.54124653529551    1.66581183318891
O           0.97161204611803   -1.29744119327700    0.94936558551937
H           0.88093288224863   -0.25690699335822    0.92463046617506
H           0.01095108468343   -1.65835932074174    0.98924657456349
H           1.29457629937097   -1.48238983373658   -0.05838580904446
O          -2.74349174133680    0.22601853710845    0.77311797077556
H          -2.01475195608495   -1.17874872310390    0.89687195400832
H          -2.31942058309671    0.88099100782997    1.38145882229022
H          -2.47700286001328    0.48216109027465   -0.11818274197216
O          -0.94745450591044    0.11249716021470   -1.40929684875225
H          -1.03153206704497   -0.84235101857731   -1.32273396332475
H          -0.01989127561828    0.97176481878141   -0.21227766023405
H          -0.30798354495471    0.23865280846374   -2.14647551516087
N          -1.38923387644661    2.00399970030103    2.31044593995857
H          -1.74348275131891    2.94892882948862    2.23293953319333
H          -0.48434027128898    1.97316507920151    1.84930395634392
H          -1.24551737227304    1.80756913864904    3.29266469126717
