    26
        -50.44480585  Gyration_radius:  2.71541046114 Dipole_moment: 5.491
 S           0.18803736283999   -2.22099820876726   -1.99863634161803
O          -1.17521736863756   -1.72749655778919   -2.10325002977868
O           1.14649509412455   -1.09963353447338   -2.05320977973619
O           0.43676058913759   -3.08265759619708   -0.87498327483116
O           0.43807310488513   -3.06835014005970   -3.31254173262626
H          -0.12558904829018   -2.64381898914962   -3.95237399069321
O           1.96762431439089    1.75448920034681    0.42719682597429
H           2.30222114949656    2.64661617197862    0.52164265101662
O          -1.40432052465053   -0.07475497801948   -0.12865114921106
H          -1.55243564341955   -0.73141840471604   -0.85425657892671
O           0.66431162542217    1.08312227154356    2.56236384936106
H           0.65439103837545    0.12630835948357    2.43805561273810
H           1.50146664655549    1.52771865438715    1.28924276220124
H          -0.27521599043184    1.37847406497179    2.46763103682070
O           0.79476589655584   -1.20458496449006    0.90283533168109
H           1.59999376316332   -0.80598954712827    0.55777004154060
H          -0.73288145575959   -0.50538747478669    0.44708168228697
H           0.68801856434936   -2.03453927852681    0.38508986812746
O           0.35183502296390    1.14694251345741   -1.44361964624047
H           0.73108804598286    0.21283435954117   -1.81473849621513
H          -0.47555143467540    0.80688560174894   -0.90370728820397
H           1.03661915210809    1.44889386915354   -0.74038237617545
N          -1.92887184937863    1.74699884043472    2.12277125778322
H          -2.55101459100103    1.43492283128946    2.85758362928271
H          -2.11234099290498    1.18041213644867    1.29950894332428
H          -2.16826247124515    2.70501080936430    1.90157717194384
