    26
        -50.44495299  Gyration_radius:  2.70100051485 Dipole_moment: 4.636
 S           2.02193210804174   -2.12631074906228   -0.40686874101577
O           0.84851845748155   -2.73519099994834    0.24696296502177
O           1.67094648320937   -1.61634625270278   -1.72071752157327
O           2.67134894272778   -1.15739526676892    0.43963879101971
O           3.03895787493637   -3.31404690617662   -0.63485101716454
H           2.56901553747338   -3.86857121168791   -1.25003468765411
O           0.66646966220696    2.36106344088516   -0.03287717514166
H           0.95352279278072    3.25470632360795   -0.22084662384379
O          -0.60377949552926   -0.84486749839873    0.86134789519523
H          -0.06087357774078   -1.74319415226176    0.67238893372881
O           1.24877013257385    0.49439810358046    1.86941650536041
H           0.09245507347263   -0.26559741687728    1.41626211501695
H           1.93832233915877   -0.10274389424510    1.49247032156744
H           1.25152970592617    1.27874147853816    1.28863657513855
O          -0.19468913693400    0.15683275264183   -1.42337700249504
H          -0.59637265664169   -0.40060468307946   -0.07918816533552
H           0.25981521235123    0.98275808565549   -1.17942699513481
H           0.51377753351474   -0.48945142527190   -1.67891040540341
O          -1.71557762702933    2.26316821025018    1.07429611853343
H          -1.65516104325943    1.75981560732553    1.88871525657531
H          -0.24162597871445    2.42899600173930    0.36689268259802
H          -2.25564947796324    1.71525212701599    0.44686174655882
N          -3.01873264976655    0.66239411044503   -0.66556158990615
H          -3.30904680945420   -0.22265250324086   -0.26874172944528
H          -2.28646943229266    0.47054132589793   -1.34205644014099
H          -3.80740396043071    1.05830538190168   -1.16043182193841
