    26
        -50.45364702  Gyration_radius:  2.37540025173 Dipole_moment: 2.945
 S           1.76342584141577   -0.32452561725789    0.09094616125961
O           1.49340959286406    0.57335417739864    1.21806262936269
O           1.57271090758907   -1.71332397729274    0.43832386129734
O           1.05044121221534    0.10177454741932   -1.09261474379980
O           3.30149749166967   -0.14885147764198   -0.24574139694959
H           3.72757959663225   -0.61910057762615    0.46319717592443
O           0.12232373593753    2.54876197876029   -1.82778473156477
H           0.87291034514955    1.93500226348619   -1.82584267364170
O          -1.96521147914801   -0.08179012855984    0.54477337765564
H          -1.67998933964027   -0.39494098198629    1.44510596683148
O          -0.50749452769174    1.94600527104464    0.55476290894850
H           0.34958175127628    1.48513159359799    0.88136734271126
H          -0.29994666498810    2.29151848445468   -0.40428168444050
H          -1.20426049365902    1.13568781282356    0.49153417419331
O          -0.75089171672328   -2.07224788163787   -0.76007658240499
H          -0.55890937535025   -2.19128686446263   -1.69218318891871
H           0.11521619888235   -2.04446296591239   -0.30196339013568
H          -1.60997713724652   -0.78921884932632   -0.03800406918374
O          -1.33544433163360    0.39892233189087   -2.49358210577887
H          -0.52980164555490    0.06356516030115   -2.06668161574141
H          -2.07241036432675    0.14573118152202   -1.93248874814921
H          -0.56689966581249    2.06682255648923   -2.32681341486059
N          -0.54987148063826   -0.98212657454391    2.59217844145491
H          -0.64330836601654   -0.88510615256137    3.59543387331330
H           0.29061403831838   -0.48459558954708    2.30453594952495
H          -0.38529414349217   -1.96069972086800    2.38783647308624
