    26
        -50.45364706  Gyration_radius:  2.37541332553 Dipole_moment: 2.952
 S          -0.41335598806381    1.71311097251512    0.34490791883817
O          -1.51833764522543    1.22420059997010   -0.48537652922129
O          -0.63114156709211    1.46227541425246    1.75039039022168
O           0.85893261538803    1.24497381358269   -0.15833098054694
O          -0.39597470554207    3.28672846968259    0.16266306528235
H          -1.14637598684042    3.56694521063092    0.67605367506878
O           1.60760065703025    0.47153661023319   -2.65251201071405
H           1.49535143552202    1.20486193002627   -2.02794836439460
O          -0.14457243755564   -2.03388603816699    0.09701353539096
H          -1.06216198043649   -1.92879625392660    0.46721484222184
O           1.01768431003164   -0.58079778505502    2.01430403500851
H           1.89964376108283   -0.20967614329060    2.07935761962409
H           0.39818281827161    0.17877886314236    2.02236376121760
H           0.40037704300630   -1.56890500822856    0.77015594179755
O           2.67872470701894   -0.82277450987925   -0.56099093424661
H           2.26245892055684   -0.10595651231534   -2.21268870124830
H           2.12396720705880   -0.11496635391366   -0.19369843569872
H           2.29094899943540   -1.65433095425415   -0.27787101256413
O          -0.56344500114908   -0.61360501920691   -1.91344035647476
H          -0.31548391218750   -1.28200645292456   -1.11400229790293
H          -1.02224731922317    0.16455660090783   -1.42613635335819
H           0.31314692595549   -0.22324806036698   -2.31459389846962
N          -2.36959726287790   -1.04335499784163    1.13268136635057
H          -3.33911558908638   -1.33179991372972    1.09424667034919
H          -2.28203962597672   -0.16387034117139    0.62719976586605
H          -2.14317038876911   -0.83999416051897    2.09903729763956
