    26
        -50.45364705  Gyration_radius:  2.37549469527 Dipole_moment: 2.948
 S          -0.38863375980938   -1.58057948147329   -0.75782986678002
O           0.14890340051364   -1.19019911199534   -2.04024433991896
O           0.66304665498326   -1.88569593033865    0.21709188818866
O          -1.35447921443435   -0.65710330698981   -0.20527933604906
O          -1.17317366357294   -2.93736192861108   -0.98959300926275
H          -0.57153190510339   -3.43942449799892   -1.52922886810859
O           1.09614011339664    1.66485898591309    0.43843881795466
H           1.90394387213096    1.19701661351536    0.09410704796861
O          -2.05285203316763   -0.13942012958115    2.37028544932482
H          -2.20120025457703   -0.69112551757672    1.58692414648987
O          -0.27816632269690    1.40604568642051   -1.83837890399586
H          -0.09642172831321    0.45925916829089   -2.01552621952845
H          -1.20655088845753    1.54368765712144   -2.03588230928175
H           0.51650286453979    1.67986875238978   -0.35530936515807
O           0.46118596802507   -0.15258663715920    2.02909382181765
H          -0.54872397658294   -0.12872286069680    2.27744937266557
H           0.57394885147572   -0.93753738272235    1.37730995403898
H           0.69173532699789    0.69749376977637    1.42041793039853
O          -2.02888539237393    1.90742029006152    0.63822825902778
H          -1.25465215942635    2.47404062864478    0.59887346628973
H          -1.81935183662045    1.11000032211079    0.12439970917028
H          -2.27471945394882    0.76159531875072    2.06162654083239
N           2.73221281959215   -0.06301724467730   -0.72061380672680
H           2.16066881281585   -0.86536295934771   -0.46316320296342
H           3.70253466281659   -0.30753818432515   -0.56772871299240
H           2.59851926179925    0.07438798064453   -1.71546844336730
