    26
        -50.45364696  Gyration_radius:  2.37543336568 Dipole_moment: 2.951
 S           0.15171998654498    1.61954806528763   -0.76095488575328
O           0.93753876565076    0.72955667457445   -1.62111295114788
O          -1.24088528983915    1.66047465819818   -1.14123957210923
O           0.38404159269627    1.32734520151631    0.63614016099055
O           0.72942921432514    3.07551365726329   -0.99840255777815
H           0.38344044789973    3.30262459764289   -1.85509048293995
O           2.50414780871186    0.17398741768611    1.88111100508033
H           2.10211831681735    0.99019690121115    1.54530234868624
O          -0.60128740317334   -1.93991863962958    0.20849742365349
H          -0.83526850727280   -1.94810528244164   -0.75860160924123
O           0.05131796450617   -0.34579805694057    2.83654608436719
H          -0.06201272466093    0.29432837817946    2.11475396038517
H          -0.39520737474699   -1.15141493183808    2.56523806372833
H           1.86722452063372   -0.13494852017784    2.55522833241265
O          -2.18933260092751    0.12918313853744    0.78745184334044
H          -2.24640003031955    0.68253359358142    1.56873887366630
H          -1.93817819551290    0.72168289328738    0.04813853133407
H          -1.18473364304930   -1.22747569737249    0.55253408519756
O           1.73886418381777   -1.14470270534077   -0.14672057614644
H           2.13436830803032   -0.68163574632989    0.69650738054231
H           0.77342025550408   -1.54217700241125    0.09231861323520
H           1.51793674604355   -0.38983573073018   -0.80613660675493
N          -1.11213664775565   -1.22877196081067   -2.28917761737045
H          -1.05004911211982   -1.71616444766314   -3.17420743217898
H          -0.40874649722952   -0.49263158492461   -2.28464651717771
H          -2.01133008460588   -0.76339487032367   -2.25221587795819
