    26
        -50.44721205  Gyration_radius:  2.5104671409 Dipole_moment: 3.932
 S           0.57106062782170   -1.88066867144648   -0.80937130249364
O           1.91198355099930   -1.47686226494015   -0.34831702507180
O          -0.41056718409742   -1.66884412390214    0.24357564629898
O           0.20609574688047   -1.29254935642572   -2.06597912776549
O           0.68041626387034   -3.44233075875114   -1.01718057889511
H           1.06163048926470   -3.70722847483194   -0.18691786876344
O           0.13862640455618    2.12574518913779   -0.42561938043145
H           0.23299653622752    3.01270111847482   -0.77624937767536
O           2.07720650493259    0.92816949953682    2.52524038620507
H           2.10152905627571    1.75010757453249    3.01765540774278
O           2.34674713838649    0.90725867438114   -0.00871925646848
H           2.39263703850660    0.93587262715430    1.01559840798802
H           2.18971370859410   -0.15032734662757   -0.22182390383590
H           1.47819332403892    1.39510982959075   -0.25254686446730
O          -1.33912672919172    0.86716468810878   -2.03788428846793
H          -0.46736411425027    1.62819341677076   -1.09776384958299
H          -0.78806498114759    0.08357439834167   -2.23838486098862
H          -2.07496440776673    0.50524150165064   -1.48515289169855
O          -0.39202264822987    0.48574384808160    1.81537911362706
H          -0.42500020251487   -0.36722155210934    1.33438258726040
H           1.11532377292726    0.68204000643732    2.42331393586628
H          -0.48857511571497    1.16435279479445    1.13347878918655
N          -2.96174623538168   -0.42585376312021   -0.31745161000157
H          -3.29675211272338   -0.01678404374824    0.54607303305782
H          -2.16612412745554   -1.02003365208966   -0.08448669717752
H          -3.69385229582279   -1.02257117829850   -0.68084841271474
