    26
        -50.45364697  Gyration_radius:  2.37540016923 Dipole_moment: 2.953
 S          -0.60049020472632    1.17758581408575    1.21577877127430
O          -0.08196677152192    0.41621477159096    2.32797545603127
O           0.45393622204074    1.89496657979681    0.49252423639526
O          -1.43007325502505    0.42033866589872    0.30499798379728
O          -1.54256333309263    2.29341248674369    1.82983768395113
H          -1.02524302890875    2.63194879186626    2.55303898834506
O          -1.94311126483259    0.76970870214744   -2.33895502948245
H          -2.18355955982335    0.99289142779360   -1.42629917268465
O           1.29741750487849   -1.30330939897557   -0.88677624299822
H           2.02972314641434   -0.91310360016565   -0.33769470674613
O          -1.76825575789248   -1.74310319385234   -1.41495497523404
H          -0.93835916499643   -2.21773206988853   -1.50459625490660
H          -1.67490429865221   -1.15766191505053   -0.64544466537925
H          -2.07825768475187   -0.19749641374548   -2.38180524930460
O           0.53561654745327    0.88764283042656   -1.81116870571540
H          -0.45239587929381    0.86100520476032   -2.13517087394339
H           0.52844442751289    1.40436228075393   -0.92435593984816
H           0.83227498326857   -0.09670597932533   -1.51090306982593
O          -0.20316185299173   -1.97538796509815    1.21926233548257
H          -1.11855560340364   -2.25525595886399    1.27954689713398
H           0.68635968912075   -1.64494074473023   -0.19668884309815
H          -0.13788736660565   -1.13698725496711    1.72279655258208
N           2.67048394347275    0.05530007060850    0.92259173645026
H           3.61272162202126    0.42478854254403    0.94212071350346
H           2.50800936694686   -0.43005341004417    1.79695952638657
H           2.02379758335673    0.84157173570707    0.90738285780333
