    26
        -50.45364696  Gyration_radius:  2.37534883398 Dipole_moment: 2.953
 S          -0.93845281217032    0.91905554331081    1.22478526017174
O           0.04255357546956    1.87963871787972    0.71065246759267
O          -2.14771471892246    0.89446645485390    0.43559135003865
O          -0.33269673028543   -0.37710241069212    1.43515003412498
O          -1.34670314096330    1.44223450065395    2.66339438301832
H          -1.91098806740951    2.18256426433585    2.46651469892074
O           2.24991655933734   -1.07623003993004    1.90253148917415
H           1.40268435540260   -0.79305793241947    2.28003055675007
O           0.66019699277285   -0.54795207512001   -1.85231178154685
H           0.30192103522050    0.30914628117721   -2.20881591023398
O           2.01941709000933    0.52398394036855   -0.05254330443725
H           2.22578841562546   -0.12739958169925    0.73176033971528
H           1.51500430044013   -0.01286882996090   -0.82997657588640
H           1.29286268519740    1.16131409053106    0.29311640582725
O           0.75343806323406   -2.72588002719294    0.40742868011284
H           2.03588125701145   -1.92716706382730    1.47136904291127
H           0.16613712267865   -2.01013066609066    0.70134269533253
H           0.80719702781253   -2.66508994356701   -0.54938945175330
O          -1.68725309083143   -1.35565932732157   -0.86406444460092
H          -1.90791531106392   -2.06695623267870   -0.25974211712659
H          -1.95680480215955   -0.52419768343810   -0.42051944808790
H          -0.15110483339187   -0.97476928661077   -1.49750093245252
N          -0.60671803413724    1.75946749738142   -2.12587781366540
H          -0.43892917100452    2.57734859794049   -2.69824038349528
H          -0.46173653001046    2.02085510640330   -1.15256645950951
H          -1.58598123825309    1.51438607545865   -2.21211876104525
