    26
        -50.45364708  Gyration_radius:  2.3755020462 Dipole_moment: 2.952
 S          -0.76085338215557   -1.62572308874065   -0.04809098334338
O           0.68056611759751   -1.88892350995051   -0.09752657960398
O          -1.25316750642132   -1.52384734539865    1.30583944325201
O          -1.11352672767857   -0.51213661666808   -0.90047433791072
O          -1.45665079541492   -2.89658928201942   -0.68897178735854
H          -1.36924902285147   -3.55180510869696   -0.00466526220624
O           0.12284559571311    0.51131149987295   -3.09383551851942
H          -0.50602288597286   -0.14015308656806   -2.74694990904463
O           1.05715657222268    1.56765658142541    0.76882240905249
H           1.42298109816820    0.95244800657504    1.46023732456444
O          -1.09622519200184    2.22111145187031   -1.42502729178537
H          -0.27246926914505    1.36904939592046   -2.84093660533389
H          -1.27285063567372    1.32892510777539   -1.08373352078755
H          -0.57526209573101    2.67504934034823   -0.75830121751665
O          -1.49473516211982    1.10169283226099    1.40868725735055
H           0.09137122872650    1.52070554580534    0.94569019035420
H          -2.31070943185149    1.31587791014884    0.95241424200398
H          -1.45827246817687    0.12363147847353    1.46264552877069
O           1.72647989659833    0.13575350724762   -1.16374153269743
H           1.38431700158287   -0.75520886208559   -0.78659407049184
H           1.15837087436331    0.32412955274543   -2.01428134502425
H           1.45670888164813    0.83702603176887   -0.39982905748115
N           1.50494772261951   -0.51734837956262    2.33560787035056
H           2.32570117077311   -0.84965072956785    2.82615546418832
H           1.28217202851450   -1.18861720632552    1.60313862719766
H           0.72637639668280   -0.53436502667196    2.98372067201820
