    26
        -50.45364705  Gyration_radius:  2.3753859999 Dipole_moment: 2.950
 S           1.69641075963768    0.46521401259893   -0.35957141243254
O           1.92062480444967   -0.68800818933163   -1.19951644680201
O           0.88271800081373    1.48812629049097   -1.02381004710988
O           1.17281231459512    0.15923666901413    0.95313079032708
O           3.11370112307872    1.12916673385144   -0.11388198360685
H           3.50111371647654    1.12805344059385   -0.98289087912930
O          -0.34452736231201    1.64017221695459    2.65301842000556
H           0.54841102399922    1.41702254092318    2.34794015567314
O          -1.88630947213843   -0.68907848621806   -0.36398673840160
H          -1.72530618058500   -0.55115385273517   -1.33609308871050
O           0.20370951677867   -2.32177255901286   -0.03898011940120
H           0.87746167383507   -1.79977051881066   -0.52304093812087
H           0.63374002020676   -2.64720595207137    0.75411623080963
H          -1.18567219647552   -1.33856705913619   -0.13253209931716
O          -0.78076438540571   -1.00447981610695    2.55829124616982
H          -0.02984866019610   -0.82756039397458    1.96794753740581
H          -0.69278928906778    0.78908808141718    2.98532651072687
H          -1.49311713283516   -1.33897558874965    2.00805467138903
O          -1.25913416004039    1.63899068217489    0.28647667387987
H          -1.60027490780692    0.64309929945766    0.09070718579371
H          -0.96885189327195    1.70908195514219    1.28282142475303
H          -0.39515512651993    1.69682972433837   -0.26485006136730
N          -0.75823136626899   -0.22575798994057   -2.71306960466643
H          -0.09761951261490    0.44675179912998   -2.32836489007828
H          -1.10772804076764    0.14398817528470   -3.58820202364429
H          -0.22537326753294   -1.06249121519843   -2.91904050413562
