    26
        -50.45364680  Gyration_radius:  2.37544698391 Dipole_moment: 2.958
 S           0.08403887618649    1.27809522701939    1.25908965957513
O          -1.22863251362904    1.78921899479143    0.94080726599312
O           0.02441603295944    0.01975481050365    2.00898055912364
O           0.97452497760864    1.16389338770611    0.12543150421437
O           0.75729752997532    2.33224898543755    2.23128466236726
H           0.05962718045433    2.52430973994919    2.84898269402073
O           3.08091825777181   -0.49070806185111   -0.31593429227707
H           2.76427555324217    0.34649852721438    0.05778421311876
O          -0.82493300457465   -1.48884523878318   -1.12864066710643
H          -1.54886624588806   -1.56965193398893   -0.45077833100962
O           1.03510880023948   -1.73705272670864    0.51853525745147
H           1.92770611817027   -1.32658503908405    0.17670995907345
H           0.67272423447957   -1.08058860198872    1.21927329080719
H           0.30258465985587   -1.68175010014947   -0.26101407372350
O           1.53038890291867    0.15215674735099   -2.40942655753658
H           2.87454698872926   -0.40915652357849   -1.26786291080566
H           0.83170786025822   -0.44850456855428   -2.67961120765508
H           1.19140981068246    0.65318975108746   -1.64943396589172
O          -1.27890248135197    1.10082407532257   -1.60629858585460
H          -0.76447809486645    1.76074744371865   -2.07497682664205
H          -0.93007421955130   -0.55869254822878   -1.42838345822649
H          -1.34780652160926    1.41292061286080   -0.67970596072790
N          -2.44587452084894   -1.07382785543581    0.92192644399908
H          -3.03444610686421   -0.29812630438593    0.64195911798884
H          -1.70713375707319   -0.67829258004568    1.50032130378962
H          -3.00012830729171   -1.69207625007446    1.50098087584559
