    26
        -50.44721207  Gyration_radius:  2.51045564833 Dipole_moment: 3.930
 S          -1.03294206053105    1.55268097725286    1.02050801540641
O           0.39363028155131    1.52307376744834    0.73555360507512
O          -1.80445971458101    1.62700119340758   -0.23378046928094
O          -1.47007649736829    0.49841583746119    1.88980742877747
O          -1.32088536867566    2.92800302795744    1.74133661053320
H          -1.13764062148807    3.54112402154380    1.03748320318584
O          -0.08981571140046    0.47435386246357   -3.36406735691547
H           0.22665684487564   -0.09828176128037   -4.06444334777546
O          -0.26511227194826   -2.06021537460384   -0.63610664022416
H          -0.50831713552877   -2.97296530604826   -0.79811541793107
O          -1.83227691632476   -0.33843835935801   -1.69134328431450
H          -1.25032418009309    0.00431149318570   -2.46334984331270
H          -1.26362243022966   -1.05165862945363   -1.22252693321184
H          -1.88619262155125    0.51902962282724   -1.02021296661430
O          -0.11791211703789   -1.78702116039767    1.86793944846995
H          -0.21058443593102   -1.96901050748919    0.39125735056312
H           0.78396178282297   -1.41737499120882    2.03478441993644
H          -0.71543992263981   -1.02649384403672    2.01783136517867
O           1.42882369182093    0.11062824825098   -1.27631156176593
H           0.60332932697763    0.46136489414458   -2.64615470090518
H           1.12459551815421    0.71371399627051   -0.56662217786560
H           1.12714265888612   -0.76793729820068   -1.00805942095598
N           2.14927918080248   -0.34446418941331    2.07717124528279
H           2.48546520014983   -0.08165493295300    2.99479572929199
H           1.62697714032252    0.44690053318497    1.70133138817465
H           2.95574035884362   -0.48508510116676    1.48129430139405
