    26
        -50.45364683  Gyration_radius:  2.3754076561 Dipole_moment: 2.957
 S           0.43864964719115   -0.57478163865041    1.64414382201148
O          -0.03962166201256    0.79652323954682    1.84441444601056
O          -0.63459693800822   -1.54048998536348    1.67944782949435
O           1.28607331525999   -0.66233494982085    0.47563785255576
O           1.37580834753433   -0.89315668863138    2.88111965347203
H           0.75357026641998   -1.01957890046594    3.58971873727247
O           2.77872961458432    1.22575984394175   -0.77949677889884
H           2.72924401999080    0.55630558044388   -0.07937903679109
O          -1.21160127968616    0.58659983863912   -1.53526970037671
H          -1.94739124830987    0.71045309948631   -0.87691383001248
O           0.41791835912938    2.02310271434645   -0.30403559911333
H           1.40530698387613    1.79942556150090   -0.54290421260621
H          -0.23287794265231    1.44178254886490   -0.92502935579960
H           0.25672432942032    1.62704017341344    0.62900940169904
O          -0.81225825229785   -1.98204136926021   -0.91613677617508
H          -1.00875225319156   -0.36995292382518   -1.43553608470861
H          -0.09985155792135   -2.58474465714006   -1.13763269193124
H          -0.81088083183685   -1.90130920032645    0.06071224566233
O           1.58186542315761   -0.63829913290695   -2.29367124244803
H           1.39214915139022   -0.86825420553367   -1.36916022824793
H           0.73924928643642   -0.43663126681813   -2.70757690246265
H           2.64076249297941    0.71108954861495   -1.59897684622624
N          -2.68968336665668    0.56071311474777    0.65991044432628
H          -3.43061847232120    1.15953039245971    1.00218083175420
H          -1.88453249617012    0.67363961293185    1.27281205449642
H          -2.99338494617687   -0.40039034015682    0.76261196719614
