    26
        -50.45364674  Gyration_radius:  2.37556932307 Dipole_moment: 2.961
 S           0.07436857647953   -1.14457648579335   -1.38251065946998
O           0.57905636176492   -1.90896233138782   -0.23775802939305
O          -1.36311371526670   -1.21914782496538   -1.50067250384456
O           0.60741680794609    0.19974414005130   -1.38302969570801
O           0.67192644179782   -1.84583537712455   -2.67115399404671
H           0.14879667408950   -2.63733439381418   -2.74232128881699
O           2.87882751887870    1.20758912232625   -0.29101354352851
H           2.45893864408716    0.77755636026759   -1.05236381577028
O          -0.65981786065361    0.79368849199519    1.76253239985619
H          -1.11296536045831   -0.07105017369822    1.95513983340566
O          -1.93030221123052    1.17904838087526   -0.55687622081127
H          -1.09869583741925    1.07174328370870    0.92827724279839
H          -1.77239767278465    1.79596818796568   -1.27403235135715
H          -1.82130507758262    0.28209363316518   -0.93677979057806
O           0.68966763560247    2.75953275037382   -0.28715225017271
H           0.13811577456232    2.79473352149517    0.49799299065170
H           2.40065578564779    2.05667314929621   -0.21510889749696
H           0.45164919805007    1.94569640771445   -0.76098291404927
O           1.57933669586881   -0.22974550932537    1.34613422150473
H           0.67275097472054    0.29706009469735    1.56485537982070
H           1.25971144140184   -0.98983532462232    0.73491324423457
H           2.18969009706916    0.37286688459485    0.75756780279230
N          -1.69076496492182   -1.63584858621798    1.56583673296940
H          -2.52584053674133   -1.52522835901461    1.00293822889660
H          -1.86554996802803   -2.36887828297680    2.24173272241217
H          -0.96015542286977   -1.95755175959820    0.93383517569713
