    26
        -50.45364709  Gyration_radius:  2.3754496858 Dipole_moment: 2.950
 S           1.21590090715991   -1.18869741758787    0.57660291797860
O           0.83429352866239   -1.02966701434252    1.96036888257416
O           0.24626937024494   -1.98687254538050   -0.17983840987971
O           1.51570725422766    0.04837389648164   -0.10963700760341
O           2.56334737582156   -2.02191839470077    0.57089981598314
H           2.38201768046180   -2.72037136908954    1.19100890061256
O          -1.80126303473293    0.95320525645774   -0.11591742915952
H          -2.21440236593470    0.18315513514394    0.35989709857836
O           1.35431710459959    0.70726291487112   -2.74090378937706
H           1.89275255248617    0.32378435385688   -2.03144259078836
O          -0.02650309796799    1.46068423207520    1.81585342353850
H          -1.14374620837677    1.26971552697953    0.54270965652083
H           0.28604192868779    0.54546857061145    1.97533512138363
H           0.75434306856998    2.01752850420233    1.82607095767002
O          -0.74567503832183   -0.44077266431322   -1.89849315691228
H          -0.34995380101585   -1.15875011336282   -1.28088052735603
H          -1.20982943243065    0.23591567478727   -1.21016055816982
H           0.06583906093129    0.03214123996804   -2.34517826936677
O           0.75013697793061    2.59465938550773   -0.93304611110111
H          -0.17027130262919    2.74503675480253   -0.70449597568792
H           1.03974947171174    1.81448813404216   -0.43197168852655
H           1.19719438885671    1.62401771123129   -2.43966787114017
N          -2.18596498502164   -1.27678167926886    1.25664515338506
H          -2.94439181262815   -1.94627866986364    1.29117135497954
H          -1.92925895631181   -1.04732543356094    2.20949055789206
H          -1.37665064455988   -1.73800198828005    0.84557953361006
