    26
        -50.45364704  Gyration_radius:  2.37533614097 Dipole_moment: 2.948
 S          -1.42603909637589    0.97888380849878   -0.48140346876696
O          -0.49682474996636    1.09750374566417   -1.60921188837717
O          -2.28343922357232   -0.17758047713458   -0.59652511810664
O          -0.72588879609109    1.08381054310141    0.77950399965008
O          -2.36778695733860    2.25059432161550   -0.55845682617200
H          -2.94375656103380    2.04229863080143   -1.28664511310824
O           1.31633855541591   -1.55911742157054   -0.02921804383444
H           0.96578555081186   -1.80965429710498   -0.92604849028646
O           1.63157684822571    2.27942645264266    1.41013013160844
H           0.67382025856320    2.38248758327931    1.29912437719275
O          -1.06512479897661   -1.71050419744269    1.17262490373089
H           0.51215229728527   -1.63418082672913    0.53115562716502
H          -1.35623481175322   -1.41081325204101    2.03593798868605
H          -1.59570935277276   -1.21324709080682    0.51538292042632
O           1.81045380819372    0.80882309514319   -0.64950976804345
H           1.84551326575829    1.43791495394304    0.17813013991516
H           1.68562415261397   -0.20122227329617   -0.31630331956118
H           0.91851896283931    1.00650172906591   -1.11750221646778
O           0.99901026295749    0.00139188006162    2.67664037504708
H           1.35788843615372   -0.82740461317551    2.35047390098956
H           1.70967168967650    1.61190578024950    2.12030005996981
H           0.24159309844820    0.22140321470826    2.10954684413024
N          -0.13740639671951   -1.72429871361976   -2.23473998976478
H          -0.36722777483446   -0.73244771983992   -2.22696126689332
H          -0.98023878510705   -2.21398023942439   -1.95848035853089
H           0.07773010756660   -1.98849462653713   -3.18794541064705
