    26
        -50.44772982  Gyration_radius:  2.51299928635 Dipole_moment: 2.775
 S          -0.56171278227652   -1.90155696723505    0.73090216995746
O          -1.21369574812531   -2.25708108191483   -0.50701983568642
O           0.87359384322695   -2.23323613524724    0.70568895380769
O          -0.79229527669533   -0.53677310946735    1.14750953798353
O          -1.17453314505221   -2.82830613334439    1.85594018027893
H          -1.05230659503913   -3.68647862868756    1.46433214855062
O           0.90387430206736    0.91693075845811   -1.73729600030465
H           1.22357083952979    1.11382479254466   -2.61915421294491
O           2.89260242753747    1.04156826113872    1.47444796195191
H           3.50295329737197    1.76222668020286    1.31124603802459
O           0.47057693397247    1.81633044606369    0.89928533357569
H          -0.04012970815916    1.01771388072917    1.13380069713386
H           1.97159184310800    1.42261505129134    1.41883053004395
H           0.50548595091392    1.80731135370966   -0.06734049180920
O           2.39345204395816   -0.64565234108117   -0.36977659746256
H           2.70371809364817   -0.04184781539298    0.39951579747204
H           1.73880042770206   -1.38407447566463    0.09464787629320
H           1.79814574294267   -0.05632263351884   -0.96083414040804
O          -1.38309062509322   -0.10759958181224   -2.04800266393025
H          -1.35890539627157   -0.97617328666139   -1.59366228664081
H          -1.98940908835366    0.43833865184392   -1.49283860377496
H          -0.02902969864350    0.49694224780719   -1.87118381466950
N          -2.77668406598697    1.16275766079731   -0.10546505043921
H          -2.24972434132635    0.55966970005809    0.52482761024293
H          -3.76071846950612    0.97848338647106    0.04221098993557
H          -2.59613081363553    2.12038931899467    0.16938783211305
