    26
        -50.45364704  Gyration_radius:  2.37549647932 Dipole_moment: 2.954
 S           1.09592220023737   -1.24604361368020   -0.68715910514594
O           0.05411930255471   -1.06574510818077   -1.70288845654910
O           2.18690234869770   -0.31368439343277   -0.84916342499495
O           0.52446250956140   -1.27624732403378    0.64086746880011
O           1.69539693089381   -2.69203218177712   -0.93126387717699
H           2.22634317766141   -2.57102789722855   -1.71149537657386
O          -0.90579493211033    1.81955187076327    0.19293235322635
H          -0.59920541265042    2.04457863154814   -0.72650737890287
O          -1.97121429172360   -1.93487023673078    1.48763641109229
H          -1.08108873140267   -2.24587659771403    1.26094585259135
O           1.55388479027494    1.33069305246646    1.11537796981845
H           1.88122719301779    0.77202012845476    0.37956687354309
H          -0.05396624125252    1.66693831131051    0.65906794040723
H           1.85499589961204    0.91340878459436    1.92475015583868
O          -2.00797078801292   -0.32102226286379   -0.46958044647686
H          -2.10582032121855   -0.98168410713485    0.32783093841594
H          -1.61396430939777    0.60713017381615   -0.10889320456762
H          -1.24113607646721   -0.68556825781043   -1.04642869775632
O          -0.68920021238763    0.04014639953362    2.77275446929190
H          -0.06818181769793   -0.30834202955801    2.11208019431308
H          -0.87105958762896    0.95093069859394    2.52898240871731
H          -1.81660188410082   -1.31978735157424    2.23169451855176
N           0.31226787689190    1.79950805170852   -2.15668145547925
H           0.30091737794754    0.78327205614704   -2.21876847704185
H           1.27080418762816    2.06210356126935   -1.95983728301160
H           0.06796078105205    2.17164963141801   -3.06582037085899
