    26
        -50.45364698  Gyration_radius:  2.37550231972 Dipole_moment: 2.954
 S           0.70198418278285    0.20088766851625   -1.64087214381875
O           1.25229313385145   -1.06766371239293   -1.15359082743359
O          -0.57356195358713    0.02970239600596   -2.29629425581138
O           0.71166857193273    1.20354936732132   -0.59890567630629
O           1.71316550749638    0.71789015172147   -2.74557394766319
H           1.52607454474491    0.14960463811670   -3.48540092412258
O           2.26391971889889    1.45062545320364    1.61617208238530
H           2.16147020349796    1.63644192178414    0.66989509749823
O          -1.17658409683410   -0.79564062802736    1.46648861543660
H          -1.31660302025625   -1.59409916241972    0.88950068152332
O          -0.30445943314387    2.20470372126225    1.79233962674794
H          -0.15558968709223    1.94501795904879    0.86824159111125
H          -0.94836754991615    1.59028900918579    2.15272471236537
H           1.50539768178021    1.91320648504037    2.02416379782354
O           1.31636185197283   -0.88821510163891    1.35476932724187
H           1.75800193608347    0.03224733113767    1.55402930222004
H           0.25897175167659   -0.80891674847184    1.50494919686848
H           1.39290765211679   -1.02491979619550    0.34031599323579
O          -2.10659121876475    0.93258936455830   -0.34719628057060
H          -1.62380641866408    0.59944299468252   -1.13244342682525
H          -1.54416660854458   -0.07508166730144    0.90809848622404
H          -2.06366885722481    1.88972560133468   -0.39083527067235
N          -1.22800734448516   -2.47972776518522   -0.57448087896866
H          -1.23837458806950   -3.48998814262531   -0.63723814551595
H          -0.33822384705526   -2.15007774052308   -0.94368707066501
H          -1.94421211345130   -2.12159359841140   -1.19516964224938
