    26
        -50.45364675  Gyration_radius:  2.37559724437 Dipole_moment: 2.960
 S          -1.07087286491995   -0.02115145518675    1.44231313329440
O          -0.60622970744537   -1.32108112468859    1.86671658491155
O          -0.09370631458989    1.03635648692793    1.71826261627409
O          -1.52227293984298    0.03602074610838    0.06966913370151
O          -2.34008104991818    0.31765089468151    2.32786667146233
H          -2.05703254419953    0.07485998842040    3.20316252154903
O          -1.59929052873212    2.10328128157615   -1.68765974650093
H          -2.04659034754502    1.61755321752954   -0.97710915575377
O           1.70505561953699   -0.27019088833961   -1.09199901952921
H           2.21195632187657   -0.34381561630451   -0.23888219306194
O          -1.02759594636634   -0.33688856564353   -2.64639854251406
H          -1.49885782497919    1.43505689834137   -2.39388909103077
H          -0.11052972557203   -0.58892806612239   -2.77818813792062
H          -1.21594988449315   -0.44828805098253   -1.70003343415015
O           0.64480297754343    1.91680878733220   -0.51980793207714
H           0.35442767067314    1.67160085897110    0.43352012143147
H           1.09910898686143    1.01241891265060   -0.87055496866322
H          -0.23314652358113    2.08501374903345   -1.05177007404527
O           0.03265261940645   -2.27191280384466   -0.51036879323361
H           1.07110425625721   -1.01743698974823   -1.01679777559591
H          -0.19049743062061   -2.01704925878675    0.40941794975048
H          -0.78812504346465   -2.55496155928812   -0.91781501746319
N           2.36779905127015   -0.49807439891532    1.46011955177345
H           3.17854381143417   -0.20733294883662    1.99198025556299
H           2.16482066346289   -1.46056827760732    1.70272789823832
H           1.57050672806795    0.05105821262014    1.77551744368819
