    26
        -50.45364668  Gyration_radius:  2.37550748869 Dipole_moment: 2.960
 S           1.18088101963819   -0.93984021992823   -0.97476326603910
O          -0.10988660722046   -1.58885141379363   -1.22398543087001
O           1.42711985276422    0.15698208111811   -1.88149953681536
O           1.33158622330424   -0.60698966312069    0.42444115798934
O           2.28432048404998   -2.03527727842028   -1.27829629107772
H           2.28769753483700   -2.07324086794232   -2.22900078371477
O          -1.55006584092119    1.27560650399522    0.37502026022747
H          -1.82591464957254    1.18310356496091   -0.57656861907694
O           0.18861561057330   -1.68557017160375    2.63673911375894
H           0.91357676409240   -1.71657098277758    1.99297615497874
O           0.91322763143767    2.13212705629032   -0.20848793994218
H           1.14191519114464    1.47189415009548   -0.89587204035667
H          -0.64470344828217    1.64818502447039    0.28851237431997
H           1.69605778333365    2.23626701646054    0.33571782314004
O           0.62811772789186    0.96159977030079    2.61746923542523
H           0.28753449779034   -0.80573442474764    3.05081402386906
H           0.99575163603746    0.61378326583753    1.78844428206163
H          -0.08684590765629    1.55532596489548    2.37605522788023
O          -1.51250714446753   -1.18048978584146    0.82408050508779
H          -0.90185708015192   -1.42893815675361    1.62877248743632
H          -1.56021633881681   -0.11418181281902    0.73663794157242
H          -0.99464212250598   -1.45544610808509   -0.01840056192400
N          -1.62144616548510    0.69804896451815   -2.20673017368933
H          -2.37954934056010    0.53538369064966   -2.85755420350695
H          -1.11838866399952   -0.17855462581922   -2.08335351939218
H          -0.97037863708664    1.34137845823932   -2.64116822157308
