    26
        -50.45567417  Gyration_radius:  2.46123780514 Dipole_moment: 5.084
 S          -0.29408417775871   -1.81526055952345    0.63713226381433
O          -1.53204819887993   -1.01211778456016    1.08304910794428
O           0.61969576155771   -0.92069793044656   -0.02992403050764
O           0.26434559461233   -2.51552211654724    1.75308177789544
O          -0.85751201857802   -2.81222274452602   -0.37976816373543
H          -1.25120346386615   -2.20350680878821   -1.13262820530204
O          -0.46032392095635    1.48461581709001   -2.07605961386649
H          -0.50116825726290    2.29290985810626   -2.58928743858675
O           1.18983095788280    1.78800896646286    1.70907216342666
H           1.19339037553783    2.32460897698032    2.50347842696064
O           1.98007392466782   -0.61431278892049    2.53650513750394
H           1.33135319123335   -1.32964159565058    2.38462545087973
H           2.75518955897612   -0.86728377437953    2.03001514745747
H           1.45802494701973    0.87951062403553    1.99547490689526
O           1.90420448755902    1.21943917872084   -0.95569512981532
H           1.85735203918692    1.70640484353171   -0.12136915920037
H           1.65283795159400    0.31348743823366   -0.70632552375729
H           0.48201946578900    1.39549718170512   -1.76743201223750
O          -1.22280198739767    1.42700753083890    0.54010668148820
H          -1.43877456667696   -0.00414270313083    0.87301650225396
H          -0.36378621988523    1.61210124493401    0.97733277903871
H          -1.04121403134274    1.46065550396358   -0.42076373368091
N          -1.82584228312782   -1.14509386067649   -2.06182261803621
H          -2.71305649560411   -0.84662026588053   -1.67681113258382
H          -1.97656509191112   -1.48253349020562   -3.00355724281353
H          -1.20993752236850   -0.33529073136742   -2.10144634143748
