    26
        -50.45567389  Gyration_radius:  2.46119710442 Dipole_moment: 5.089
 S          -0.71386175160390   -0.09675238311097   -1.80735733192786
O           0.39968677286418    0.31052811473937   -0.98609525198112
O          -1.83093259515212   -0.63425274494075   -0.89078068179403
O          -1.23093841884544    0.92791795943874   -2.66194864709490
O          -0.30920307109319   -1.31846512806821   -2.63725670487235
H           0.03200001950736   -2.00151097825077   -1.92308252220066
O          -0.52117278036334    2.25921058403161    1.47147809684244
H          -1.11880384961535    2.84812564068228    1.93525091025161
O           1.32750445676347   -1.43864904393179    1.69883694523874
H           1.71336652468054   -1.67359040294453    2.54395365831221
O           1.97320771756644    1.02375338924041    1.03910218201673
H           1.69100525683848   -0.54190578674785    1.46391652373276
H           1.60328407356509    0.85328077450946    0.15573131262586
H           1.31097919975167    1.59130635479264    1.45713664829530
O          -1.17224310987183   -0.36584086396719    1.52456931810965
H          -1.59231222929696   -0.53994195806056    0.11064713677004
H          -0.31709407534034   -0.83259615074381    1.61472211058889
H          -0.95568741513195    0.59082821641607    1.55912055918086
O          -0.69499804578082    3.01601611175489   -1.07334396139996
H           0.18643804527395    3.23931861114422   -1.38083184826188
H          -1.00875724588503    2.31902037919032   -1.68276170169705
H          -0.58657708266296    2.50582953313694    0.51532381886038
N           0.40242260847216   -2.86513962440751   -0.72772294386693
H           1.02954219940129   -3.62297829224855   -0.96401184230815
H          -0.45317731998520   -3.25502479278842   -0.35313509507150
H           0.83632212594307   -2.29848751886788   -0.00146070834884
