    26
        -50.44721208  Gyration_radius:  2.5105064642 Dipole_moment: 3.931
 S           1.86284449294342   -0.55120976872482    0.86258967165130
O           1.05467225671246   -1.59984812091816    1.51152387847772
O           1.56721670856377   -0.49351708085959   -0.56096335160864
O           1.77327788110854    0.71928937891907    1.52289972181578
O           3.35083130309242   -1.06355323018380    0.99426231257997
H           3.26474947502318   -1.95129382431696    0.66345901533299
O          -2.07467771246422   -2.68064826602294   -0.25112087463336
H          -2.99049754710579   -2.71282178854807   -0.53189149748369
O          -1.87713598640102    0.96060350962581    0.52349611175487
H          -2.61639627115115    1.44850874941972    0.88951900267850
O          -1.35616360788401   -1.23640605271515    1.72176206414980
H          -1.54522149143686   -0.31761963674897    1.30712780550173
H          -1.69936236247185   -1.91674996678126    1.03507651380032
H          -0.27594272438178   -1.38137667812179    1.69794149321574
O          -0.90796332458228   -0.72864864851822   -1.52610424632262
H           0.03521392686055   -0.70930195456816   -1.26147094571957
H          -1.60390293083660   -2.05992203785264   -0.87495037912119
H          -1.31273139219236    0.02437935180180   -1.07452258648659
O           0.09905658213493    2.52950555741447    0.53666425624624
H          -1.08065132960328    1.61788030799385    0.53772514068794
H           0.76547803893876    2.00183899762061    1.02176698199184
H           0.43153987058685    2.53427445806926   -0.39462408650409
N           1.14224207471046    2.03576228842479   -1.89900825704156
H           1.96613730439245    2.54265282347505   -2.19632086421106
H           0.57814767050579    1.85435596742190   -2.72005562033816
H           1.44923906539652    1.13386567437820   -1.53478127049599
