    26
        -50.45567402  Gyration_radius:  2.46123272025 Dipole_moment: 5.088
 S          -1.47359415239390   -1.26204888843560   -0.15087080380021
O          -1.32037208117802   -0.98016282824381    1.35706178112397
O          -0.45267055674618   -0.53231810753719   -0.86188357809452
O          -1.47320961025458   -2.67311287669351   -0.38856052665427
O          -2.84536160333501   -0.67227134317721   -0.49080425515812
H          -2.74151182631676    0.34355175943347   -0.26621849615990
O           0.44162148936241    2.55413551787821    0.03630768625232
H           0.94884963614646    3.35989103380758    0.14498739159439
O           2.52152191911948   -1.00596811191724    0.40984846498419
H           3.17534125009620   -1.46044871446613    0.94370925013900
O           1.16128120743212   -2.96454856231631   -0.77065162001302
H           0.20616099212315   -2.97767523491643   -0.56287545887998
H           1.20929592107487   -2.83374679146037   -1.72033784195823
H           1.98474136278901   -1.71599348286370   -0.02256014737936
O           0.70093701249606    0.46435409924724    1.76715776226618
H           1.40098087618905   -0.05312208457488    1.31399582188337
H           0.56699437723310    1.26285839394809    1.21784280267140
H          -0.49865487305228   -0.38717446590834    1.56128697335047
O           1.71066510329960    0.86688666612419   -1.53154355072849
H           0.90465004130327    0.32267883661953   -1.55058852223904
H           0.92478686195992    2.00766493401419   -0.64145425171878
H           2.30746411825276    0.36927327971386   -0.95563520725686
N          -2.40597306721000    1.75236722893986    0.19671714975456
H          -3.00537939997947    2.45826114253205   -0.21077380404044
H          -1.43876061992728    1.97832728449476   -0.02732954376940
H          -2.50980438849226    1.77834131575889    1.20317251382860
