    26
        -50.45567422  Gyration_radius:  2.46111648284 Dipole_moment: 5.086
 S          -1.09015729279591    0.02329080167329    1.61183347072071
O          -0.38719879788917   -0.80330753055642    0.66163946286276
O          -0.99410979382890    1.49189955392566    1.15260886847748
O          -2.45939975283808   -0.33760008167285    1.81811029380074
O          -0.33714984188668    0.01219080217236    2.94522422472120
H           0.63219955511432    0.30546525604743    2.68529389180094
O          -1.28167181851256   -0.18298861695822   -2.42070859914320
H          -1.85316113066547    0.16902435759300   -3.10521472415293
O           2.48042709355887    0.18172966273096   -0.73156246172066
H           3.21685746530471    0.26243235313252   -1.33936823185084
O           0.19572165646640    1.63095359458564   -1.06222288982227
H          -0.50902311461639    1.58551378426298    0.24465418644065
H           1.05952384406840    1.19322168825051   -0.92251778972833
H          -0.33268770422369    1.00508614242854   -1.60285472775465
O           0.86486474725413   -1.75027389511835   -1.48798594247384
H           0.40571245380190   -1.66174242134125   -0.63500251479539
H           0.25136093522195   -1.34920517295261   -2.11903291431577
H           1.96916559811116   -0.62414172666768   -1.01566645231352
O          -2.95775261964349   -1.24905116218276   -0.65024359171646
H          -2.90247383200524   -0.86172014147775    0.24557816020807
H          -1.88454645295678   -0.56518418561841   -1.73536877633755
H          -2.72726043284590   -2.17405373795309   -0.53781553921558
N           1.94053813574100    0.82347334048924    2.10966118099321
H           2.74235480142021    0.61151600530735    2.68907113160068
H           1.85968915110734    1.82841134484953    2.02017562115591
H           2.09817714754026    0.43506002505143    1.18171466255984
