    26
        -50.45364691  Gyration_radius:  2.3755396531 Dipole_moment: 2.956
 S           1.51108947757345   -0.57152109314230    0.78297639818379
O           0.80018090857167   -1.27749773152416    1.82325229804845
O           1.09009276969503   -0.89937700515010   -0.56101786746468
O           1.51019044011181    0.87930767644268    0.99384308030991
O           3.02600793224759   -1.02450257191439    0.88261884102813
H           3.19601400782644   -0.98876350475495    1.81809092864828
O           1.17381865823857    0.55180937112519   -2.85827801402815
H           1.64594073387352   -0.05206882616889   -2.26453570304767
O          -1.89169221168728    0.75789890592970   -0.12557461107902
H          -1.80351960472190    1.07244116645240    0.81440755017779
O           0.20261081181467    1.86418337709875   -0.91637544927801
H           0.80635214007459    1.56056090823399   -0.14377427226554
H           0.58838770933196    1.41914912430784   -1.77384071551950
H          -0.73663365261103    1.40848203839612   -0.67765357442060
O          -1.40226774068375   -1.80135783510629    0.46743385089771
H          -1.20311562151799   -2.55497591893797   -0.09135014250784
H          -0.62098407120467   -1.67308644186655    1.04528717017070
H          -1.78050453676900   -0.21356247404849   -0.02576231851687
O          -0.91676205521442   -1.08407515846196   -2.47922578715228
H           0.39306836147474    0.03395704981115   -3.13855155953435
H          -0.32158575173180   -1.21851371309374   -1.72325731786449
H          -1.73406659143523   -0.72272402376506   -2.12789459183265
N          -1.05045867245965    1.16740263576926    2.35003349293643
H          -1.17181490728327    1.93074477066223    3.00373344799072
H          -0.06828230963029    1.13358757150807    2.08372247177511
H          -1.24206626390059    0.30250173213628    2.84169239430676
