    26
        -50.44721209  Gyration_radius:  2.51046484465 Dipole_moment: 3.930
 S          -1.76613625270785    1.10148866672828    0.43220671260971
O          -1.00439519356838    1.52140041589971    1.62270685109074
O          -0.94957600084959    1.23768917419282   -0.76441199973849
O          -2.36874750048955   -0.19251806486226    0.57583685799009
O          -2.92555945878986    2.16683366771642    0.31121168073267
H          -2.43091435655733    2.97730986142282    0.36926608696955
O           2.73680222610282    1.49129721474178    1.35515488755661
H           3.64359136903612    1.18195168806084    1.38048028124453
O           1.07824378558273   -1.77114538380905    0.64880760195692
H           1.40222148913525   -2.59962363067340    1.00543579753697
O          -1.11855761110731   -2.28306839219322   -0.48197801840733
H           0.18109403320356   -2.00132980844328    0.19186055322174
H          -1.71626710108406   -1.63967516970009   -0.04990781249290
H          -1.02202866475452   -1.93639781600334   -1.40310176647277
O           1.63391812115060    0.57780667243705   -0.82345157854369
H           2.39030413768968    1.29260002973677    0.44054216029336
H           1.55175910656540   -0.35532037960365   -0.58399212505307
H           0.71433984124256    0.91323616408983   -0.86639759321834
O           0.85007418145609    0.10837720066823    2.36617592609686
H           1.64344367809411    0.70429907672707    2.10612397144930
H          -0.01539421092429    0.71037836814614    2.08875910345750
H           0.88537447640991   -0.68427844884919    1.71633681598305
N          -0.85119443164213   -0.85941020187737   -2.75482248624779
H           0.02564069766945   -0.76486965303291   -3.25227782673732
H          -0.97307799516922   -0.01908655478379   -2.18974447653715
H          -1.59495838570913   -0.87794469659787   -3.44081961470648
