    26
        -50.45364674  Gyration_radius:  2.37553408271 Dipole_moment: 2.955
 S           0.07649825188685   -1.79199191872282   -0.07129314376013
O           0.97799615286174   -0.88815410601246   -0.75053496111615
O           0.31075683393020   -1.91837614794776    1.34831098504176
O          -1.32010072045352   -1.46909095757512   -0.37873918987868
O           0.34227558184060   -3.22079845532317   -0.70215297797177
H          -0.10148319998203   -3.80530444770445   -0.09654994624507
O           0.65644155214490    0.58496630134494   -3.01341340155401
H           0.91270853889657   -0.27033688896792   -2.63565494141463
O          -0.50310113131606    1.84086566009131    0.72514566572224
H          -1.19691573518380    1.40399916266610    1.28909691473835
O           2.10527664804879    1.64058627634929   -1.01970393157629
H           1.68302557840784    2.24915435687761   -0.40870198249570
H           1.86062442451562    0.74401563267292   -0.73663429728985
H           1.29510959789245    1.21107098341619   -2.61771512801482
O           1.51248229875631    0.40015000141703    1.72676226107925
H           1.09620188547264   -0.48626275426693    1.68446757802654
H           2.41835210570462    0.28644638647256    1.43305221059231
H           0.32098819346675    1.41638969231311    1.05179707781744
O          -1.29737208125838    0.82414258968789   -1.41281507353937
H          -0.55284040378026    0.79304302548522   -2.13868645502166
H          -1.39674130231624   -0.13729156505258   -1.06743313148518
H          -0.92766101156088    1.34820137899145   -0.55516425225897
N          -1.99320894638610    0.06564744665334    2.00267671466310
H          -2.95277493431795    0.07141231977317    2.32498259262869
H          -1.41151141106071   -0.26903660167727    2.76167915771497
H          -1.91502676617863   -0.62344737085862    1.25722164556059
