    26
        -50.45364698  Gyration_radius:  2.37564973265 Dipole_moment: 2.957
 S          -0.47561560261459   -1.63388385228847    0.57309303915642
O          -1.22935574515359   -0.41952943182136    0.79269245504458
O          -0.56945607157048   -2.16377358151912   -0.76715961474003
O           0.91393477454492   -1.47602547685888    1.01322590524351
O          -1.11549130967184   -2.71836925291457    1.53461787034976
H          -0.73861404696272   -3.53160705137183    1.21548823342700
O           0.97410023051872    1.39656541095440   -1.12764051062058
H           1.61414470689873    0.68860796589182   -1.40952680819679
O          -0.85130701739358    1.61800434207158    2.55084816338604
H          -1.24311502226146    0.74527019060665    2.39251152311300
O          -1.18244308139654    0.08466051279316   -2.00515522562208
H          -2.11885321852784    0.22898799795782   -1.85647264105056
H           0.11919642518188    1.04012248515888   -1.45627671768254
H          -0.97825500040623   -0.80009757860919   -1.63607716939561
O           1.27675113843959    0.99469376512472    1.31803044346876
H           1.20185655923844   -0.02853046799921    1.28884172493987
H           1.13134351343753    1.27336634877221    0.29411898577784
H           0.46605308291853    1.32581003275808    1.87929064366795
O          -1.79627982268513    2.21962601965611    0.11390085030658
H          -1.18578272792059    2.51781572596046   -0.56460421374794
H          -1.72410914463692    1.25154413636005    0.15025593126356
H          -1.28798540111133    2.18910803564833    1.88816256447709
N           2.17330778530360   -0.92373266376238   -1.55351717557251
H           3.14157734678675   -1.18704194450881   -1.68688008640390
H           1.62483423032242   -1.37718788748546   -2.27462669068248
H           1.85956339870872   -1.31440380053584   -0.66714146987832
