    26
        -50.45364699  Gyration_radius:  2.37568007537 Dipole_moment: 2.958
 S          -0.99086995687644   -0.89484004693329    1.20099558475846
O          -1.04581902914883   -1.08143593303584   -0.23188488508967
O           0.16590428894219   -1.47968616443385    1.83794913582074
O          -1.16570188821163    0.51753351343666    1.55335416713021
O          -2.25739454950758   -1.64806309931233    1.78290902277684
H          -2.07437274768597   -1.67782439909171    2.71612926139724
O          -2.22301013064884    0.40645551227116   -2.17779668735138
H          -2.32619975487346   -0.30195228081300   -1.52376105937524
O           1.54779351988138    1.13091018217707   -0.70480905922698
H           1.75854089133179    1.38548683350340    0.23388108619796
O          -0.84948722280905    1.81703521662424   -0.57748195102070
H          -1.43980696081544    1.33496099555088   -1.28520702051987
H          -1.06228117366985    1.36922077148344    0.32113453229104
H           0.17619705357228    1.55312946515679   -0.73812981595731
O           0.11227847813360   -0.78441153828991   -2.74549699556734
H          -0.12882599449061   -1.06446189544431   -1.84707521491748
H          -1.52435298455521    0.06924466260686   -2.77290815875209
H           0.92579926521819   -0.27999621371679   -2.66976871752046
O           1.76746859435139   -1.49478447268723   -0.25928223820953
H           1.51314584039617   -2.25295381614843   -0.78870908586176
H           1.65307681048172    0.15405367612840   -0.67875603931266
H           1.24522861924948   -1.54927738326013    0.56835316473223
N           1.62133564608354    1.26832464070526    1.93691430524770
H           2.12986812281421    0.44293617857262    2.23126512650112
H           0.63263048012114    1.04499532859083    2.03376336135482
H           1.83885478269996    2.01540026633634    2.58441820044434
