    26
        -50.44772976  Gyration_radius:  2.51297878899 Dipole_moment: 2.773
 S           1.14767618115778   -1.69195781966706   -0.53445765432593
O           1.48072169718278   -1.13973933980044   -1.82599912733783
O           2.09918585668040   -1.26059134266622    0.50444602825571
O          -0.22367400385984   -1.47053107135030   -0.13479125481400
O           1.34161155103420   -3.25765147065224   -0.63991441179776
H           2.22873060259605   -3.30364394239041   -0.97998590860579
O           0.11444696143864    2.15933576541419   -0.00321587094750
H           0.33502542292250    3.07423963275449   -0.18474568597835
O           0.06026839906840    0.46825410301561    3.37673839944358
H          -0.22126805348055    1.17685812207722    3.95734108521150
O           1.75273156336029    0.93438370238806    1.52857760300960
H           1.94768966316103   -0.03772622509542    1.07405596700216
H           1.13965142877431    1.44247876241343    0.88281932045431
H           1.17840152336058    0.73322305891715    2.35459346584973
O          -1.55909533743312    0.32976341265956    1.33817168039838
H          -1.27359096003940    1.10237077004392    0.83099811576342
H          -1.18467023150719   -0.43229539033455    0.85583675073236
H          -0.67260185921907    0.32737253514721    2.71369746608178
O           0.00475483922987    1.01949771557329   -2.25386271080008
H          -0.88691319269807    0.59802854976942   -2.28787029448948
H           0.07344054868171    1.69894844499611   -0.92565714490449
H           0.62620836992614    0.26240422389861   -2.20887544783008
N          -2.23807532301355   -0.46813751210033   -1.96068712305414
H          -2.57780372445426   -1.06035970186543   -2.70764204344943
H          -3.03733203096485   -0.16400428703889   -1.41855560656962
H          -1.65551992493101   -1.04052066255388   -1.35101559319314
