    26
        -50.45364688  Gyration_radius:  2.37566120213 Dipole_moment: 2.958
 S           1.78553784128362    0.18697717427472    0.03684616104735
O           1.07262411682427   -0.90076987766969   -0.59526419309449
O           1.74991061505039    1.43219694772978   -0.69393405269870
O           1.36626544098974    0.34831304520561    1.43242952699588
O           3.30328242465275   -0.26437135621480    0.08810517469023
H           3.75589906472434    0.54274879723493    0.30936106247308
O          -1.96055982554378    0.55941069650418    0.11851565159576
H          -1.67065129974883    1.39346866104660    0.57740053267053
O          -0.11917806373555   -3.10166632795777    0.46344887594805
H           0.69817270370590   -2.70525892667745    0.12420928242980
O          -0.46756270587242    0.99208912659482   -2.05520606321136
H          -0.22748447583615    0.41878045316052   -2.78561522953365
H          -1.50207688176677    0.63442324423839   -0.74759266031452
H           0.37104811578728    1.23970198610440   -1.61239325959204
O          -0.76047964038040   -0.97173723224572    1.68369317464192
H          -0.56117642386180   -1.89982291482010    1.25838894790147
H           0.13339535497292   -0.46748538400062    1.69433977406955
H          -1.35176014209207   -0.39389068399390    1.00273444273678
O          -1.27840916864730   -1.94325296719066   -1.65986303539098
H          -1.99933847033665   -1.32459490323211   -1.52025542380461
H          -0.45447382338442   -1.45562395273335   -1.49524759297948
H          -0.72636689964254   -3.06596983528037   -0.30205577066042
N          -0.52187381855916    2.54280774930277    1.11855574433116
H           0.26278694290345    1.93546506774716    1.34699303689289
H          -0.66420088101948    3.17640812864777    1.89508799083808
H          -0.23333012046645    3.09165328426026    0.31731788205442
