    26
        -50.45364683  Gyration_radius:  2.3756047572 Dipole_moment: 2.958
 S          -1.76679838207487   -0.13618855190421    0.28927034620374
O          -2.04385934768845    1.15006501882811   -0.30631418052235
O          -0.98508295917997   -1.02616699982020   -0.54017502109979
O          -1.18003755970257   -0.01534132620056    1.62733676205143
O          -3.16559815199518   -0.85220329160542    0.49076607272546
H          -3.70777798931522   -0.15834876896861    0.85115005449030
O           1.83785961165410    0.88717089052756   -0.08137620509757
H           1.48531345159734    1.61718959323748    0.49570095353758
O           0.69507126035411   -3.05801694744664    0.11892701662853
H          -0.21740851587944   -2.78785416511033   -0.06729136618181
O           1.32264145325460   -1.54672187092152   -2.00594984554138
H           0.46298579836649   -1.22772371182635   -1.68499983624515
H           1.94460229125416   -0.82312942360080   -1.89847908084330
H           1.16876484660157   -2.85350757647451   -0.71165317360151
O           1.14854867306057   -0.95262038925733    1.45974787532681
H           1.53036176723497   -0.22659596320953    0.77123316680006
H           0.19513518059147   -0.61750720754296    1.63931464563638
H           1.04452939337475   -1.86444226579372    0.96988284432353
O          -0.00851560243744    1.22013172561379   -1.98441741807171
H           1.25118951311375    0.94852027659098   -0.86752227001475
H          -0.25580973309435    0.67343335017524   -2.73262375888726
H          -0.80218619343838    1.27895175316390   -1.41226394943338
N           0.25471228166590    2.49711884779561    1.29925564475899
H           0.40335881633376    3.08231114848530    2.11178302425444
H          -0.37673901454653    1.74373707520090    1.56460749010962
H          -0.23526090915409    3.04773879002515    0.60409018882475
