    26
        -50.45364692  Gyration_radius:  2.3756253004 Dipole_moment: 2.957
 S           0.52005133289666   -1.69575876457063    0.27972429746506
O           1.36972687452088   -0.63034138491673   -0.20398365305397
O           0.22942399266007   -1.63637681616331    1.69320506276880
O          -0.69428931353883   -1.80890127724957   -0.53392502030613
O           1.33045309898275   -3.03589870787852    0.04013609891048
H           0.84142449778611   -3.67195977124574    0.55157469390849
O           1.57823411507569    0.50211511197067   -2.66580715708690
H           1.86654164654379   -0.20896985424766   -2.07297858092715
O          -1.15810485083227    1.67303575382083    0.17178363669582
H          -1.88760627415352    1.10252455303034    0.53608138270164
O           0.61613487736461    0.95156358091275    2.03521739274816
H           0.46848482207298   -0.01718943876137    2.01397407898130
H           1.56519336397310    1.07822107396466    2.09080991903234
H          -0.44067162611499    1.52868145153991    0.82789932260595
O          -0.82965017768458    0.30504321179572   -1.89101278100535
H          -0.82087713897555   -0.61387096082170   -1.43395414257909
H          -0.94299340296367    0.97975935959163   -1.06690775801422
H           0.11673390493039    0.42886640436126   -2.30436292566733
O           1.88079696018496    2.08666551421023   -0.52304759126212
H           1.85594230807490    1.31570857973162   -2.20001296495656
H           1.13009832269418    2.59612598929079   -0.20858411346168
H           1.76831719631162    1.18316589737545   -0.18424727679146
N          -2.55218217243690   -0.34536287933696    1.16462115178880
H          -3.53431619556372   -0.58851173330514    1.13268330821824
H          -2.23923199268031   -0.43778652371629    2.12379052164111
H          -2.03763413910689   -1.04054837946531    0.62732309765306
