    26
        -50.45364693  Gyration_radius:  2.37564549147 Dipole_moment: 2.955
 S           0.64676231914222    1.15976118045605   -1.20831419457115
O          -0.55439087624158    1.11844902241284   -2.00926117967079
O           0.42556518163224    1.44733602263061    0.19145767979083
O           1.46769878071058   -0.04370284017502   -1.37342400758569
O           1.51904185243279    2.36062044122469   -1.76237276611140
H           1.46373975769962    2.24434457427567   -2.70507130938059
O          -0.97386089209485   -1.65382049153241    0.69716682878895
H          -0.92648455261625   -2.03968658907914   -0.21888016808277
O           1.86873362276860    0.78303121807553    2.39756903151293
H           1.73892964151217    1.41752463557976    1.67602093125836
O          -0.80387290065237    0.83586407072764    2.61138864678601
H           1.02022229616769    0.81073905600030    2.88283802666253
H          -0.59384981537872    1.13200878615984    1.71026994891270
H          -1.29522824164627    0.01531982095184    2.52612388128044
O           1.47557845915834   -1.19789322061672    0.86186837746956
H           0.42686268632476   -1.41207731135530    0.89977555245163
H           1.58666071498503   -0.76444026676833   -0.06185401744336
H           1.69638703847526   -0.45530962096744    1.55601363057955
O          -2.26140445472454    0.55618686734989   -0.07696421270910
H          -1.49215508371433   -0.83267779221125    0.54514151882145
H          -2.43571652385603    1.38179792482459    0.37892200355599
H          -1.71189707677201    0.78270784740896   -0.85634754481356
N          -0.63143707131937   -1.99029830203905   -1.90540955281136
H           0.16309196970728   -1.35458447362000   -1.94183468497703
H          -1.40617740377210   -1.50305517872388   -2.33994742662241
H          -0.41279945796555   -2.79814538103909   -2.47487497311342
