    26
        -50.45364692  Gyration_radius:  2.37561772855 Dipole_moment: 2.957
 S           1.16891730190005   -1.35426962094936    0.15284974930986
O           1.31476829831216   -0.22077207776193   -0.73311141091203
O           1.44023019963490   -1.06824839253846    1.54226517218176
O          -0.13062428474555   -2.00559465930115   -0.03803515690674
O           2.25617465967557   -2.40823906501626   -0.31297932364564
H           2.26895995881715   -3.03028098465755    0.40684038916925
O           0.13627498195135    0.33997889689660   -3.11713998417801
H           0.86802744418573   -0.10032878511256   -2.65790746858394
O          -1.53023755830001    1.24333410530781    0.53251587775761
H          -1.80058013424556    0.57758783261136    1.22096931115493
O           0.95177013422816    1.52441500207692    1.48241678058021
H           1.17302441452548    0.57705078498040    1.60175298124432
H           1.73206229315325    1.93832109232689    1.10874408284307
H          -0.61803424531100    1.47187011659229    0.81822366531358
O          -1.53799308383311   -0.38985983432150   -1.35621010855645
H          -0.93829065186182   -0.08440810948830   -2.14938062334054
H          -1.01928867813623   -1.13684884477022   -0.88038680341877
H          -1.56667690715233    0.38678113065463   -0.61920785122430
O           0.63178122187455    2.38053149570554   -1.44869189833673
H           0.25191496822225    1.28210592916333   -2.88244779316154
H          -0.07113969517721    2.69945343387515   -0.87760192806225
H           0.99650157211642    1.58491474143045   -1.02709066043011
N          -1.59335755650363   -0.82315089981238    2.18463319159733
H          -0.92623644130828   -0.60011629519909    2.91379658263669
H          -1.10863861161839   -1.43480681449256    1.53067252746239
H          -2.34930960048148   -1.34942017827222    2.60451069934243
