    26
        -50.45364698  Gyration_radius:  2.37566467503 Dipole_moment: 2.958
 S           1.06857000399483   -0.85469330196450    1.16298859461769
O           2.23441361341982   -0.70609152213864    0.32350878836057
O           0.36012772177969    0.37728570238465    1.42995454603494
O           0.15474449097372   -1.88896794688884    0.66832929051865
O           1.58597649892930   -1.36818419137262    2.56962753707631
H           2.20674695612778   -2.04827007787416    2.33006867343851
O          -2.25260707023827    0.83638780597313    2.01832792235253
H          -1.36950184620010    0.62179152810245    2.35658416689355
O          -0.78780988684698    0.51930570063368   -1.81113973767176
H          -0.36973961905764   -0.29554553241409   -2.20047656525661
O          -0.96933492756376    2.64065743120961    0.50398599458772
H          -1.05606209033874    2.59732305809849   -0.45130672743586
H          -2.13090557149074    1.71062765561572    1.59790150606335
H          -0.31008117489158    1.97331097827322    0.75643061250868
O           1.51847459163485    1.51818322620899   -0.90288620662984
H           1.70465459299741    2.23508986836009   -0.29361428157844
H           1.88022725819556    0.70578210822580   -0.49076104367510
H          -0.00388264158041    1.01157961484291   -1.48085308534138
O          -1.96633813284996   -0.70126578226130    0.02060160727889
H          -2.19476402442486   -0.08512241976692    0.82678939852102
H          -1.54619150794627   -0.10770375799776   -0.76594039795963
H          -1.17186460425327   -1.27734505879892    0.32098723373676
N           0.66625318076283   -1.65921606192858   -2.18917335064726
H           1.61540177886078   -1.32671520571049   -2.31168810834309
H           0.54548965412198   -2.47821607618550   -2.77173591743131
H           0.58800274589113   -1.94998774256390   -1.21651044003264
