    26
        -50.45364679  Gyration_radius:  2.37558433375 Dipole_moment: 2.957
 S           1.16580478609923   -1.14900331167657   -0.73713932348084
O           0.88190191588315   -0.69924838217018   -2.07996798148950
O           1.50554844726295   -0.09312207634653    0.19058334836348
O           0.09985061236010   -1.99858236929511   -0.19743317199716
O           2.45118770727515   -2.07042984803076   -0.83126271652186
H           2.26694563934627   -2.61276408281785   -1.59101993641849
O           1.22285388405877    0.06787126625332    2.88990272406219
H           1.78103527818206   -0.21852614150040    2.15069177286425
O          -1.73780457468670    1.05047539959349    0.21243637405069
H          -2.17032295347038    0.41911012277018   -0.42368352416346
O           0.18520859203344    1.77753912144598   -1.49501156784676
H           0.44396973806270    0.88748532875928   -1.81383541910240
H          -1.02069435634638    1.43497585707852   -0.33879300365144
H           1.00110251424764    2.26420322246901   -1.36373721517407
O          -0.89082022630784   -0.73475671420312    1.73919137432014
H          -1.26511002540215    0.09414648013718    1.17377824376023
H          -0.50622932177913   -1.35068040544632    1.01379591341298
H          -0.07888739950977   -0.41905518627186    2.30780405922019
O           0.86750431661766    2.30297258645369    1.45222883494693
H           1.13356629546962    1.61144015051407    0.82384002660692
H          -0.02408347849790    2.56707559138334    1.21278210248205
H           1.14736819348494    1.03412274152967    2.75932700678500
N          -2.18515405510217   -0.84187159273637   -1.58269804150293
H          -2.98391650803853   -1.43088830259012   -1.78200493274415
H          -1.43638745140434   -1.43483168685097   -1.22988904273601
H          -1.85443756996869   -0.45765777831467   -2.45988590419394
