    26
        -50.45364686  Gyration_radius:  2.37557336645 Dipole_moment: 2.954
 S          -0.73622667345318   -0.46076202207368    1.57141132042982
O          -1.48149897751833   -1.55451570073918    0.99339905568413
O           0.67902490742453   -0.47538738777849    1.27483269962430
O          -1.32519842913418    0.84369988516279    1.25393226321775
O          -0.84889362084098   -0.61776080098008    3.14385646933793
H          -1.77116214127984   -0.81438970635464    3.27041179804625
O           0.09055140886756    0.37709567871825   -2.00434617430610
H          -0.90316736819863    0.42731830223568   -2.01685120271138
O           2.48820763482162    1.54770049726265    1.12439486327714
H           2.03608688602772    0.90571358301566    1.69323406120744
O           2.75147268843700   -0.50423028132994   -0.58204987734317
H           2.96712681953857    0.98744812611790    0.48179856975092
H           2.00802725955741   -0.72587479096166    0.00267896649671
H           2.39202590819349   -0.42224851558390   -1.46866746321928
O           0.15908530651090   -2.09843266435458   -1.00069791235760
H          -0.50052993035136   -1.98674553680983   -0.28434494724308
H           0.24341472720025   -0.54225649571093   -1.69198488216610
H           0.87870333604600   -2.61043457092341   -0.62673364930864
O           0.36377679936260    2.04818192751829   -0.16906626637297
H           0.34184059742535    1.36919454568608   -0.99689229555943
H          -0.35152776841061    1.66483080609036    0.45940424746920
H           1.26997276193649    1.94533632356150    0.33118870414940
N          -2.47072696063787    0.23466253668090   -1.35297058825305
H          -2.29540724588868    0.46936746424561   -0.37782788008294
H          -2.69463396923413   -0.75324391521194   -1.37223687760242
H          -3.29034396642530    0.74573272246727   -1.65587299218151
