    26
        -50.45364681  Gyration_radius:  2.37559718799 Dipole_moment: 2.956
 S          -1.03829080469678    1.07464797174354   -0.99480218995465
O          -0.82137770873171    1.20518263985777    0.42888969773108
O           0.06641961767157    1.51778018575796   -1.81294235723962
O          -1.47526787481033   -0.28243978016742   -1.33662170718116
O          -2.26099632458666    2.02367017611293   -1.33324386987953
H          -2.23378298746081    2.07230599044595   -2.28305912670615
O          -1.85578572072922   -0.18353855415023    2.52522859762119
H          -1.96860550185097    0.56003493394363    1.91339893796471
O           1.46299831156564   -1.36554840486877    0.40515193164251
H           1.47233990010279   -1.60771101179700   -0.56002674137600
O          -0.99541327632630   -1.70226288444618    0.68393558000222
H           0.06974625262475   -1.59194102379861    0.66854800829738
H          -1.38031491012695   -1.17254947435849    1.49215272272344
H          -1.29001195750584   -1.19111208972890   -0.15600753742362
O           1.98533939017765    1.21938646314986   -0.02649277370102
H           1.93655358917465    1.98207786243332    0.55292661750678
H           1.70397343781184   -0.41307321150974    0.37791717877699
H           1.34373056315140    1.38155338164711   -0.74959911961490
O           0.68868341403943    0.64454568895948    2.69704480624636
H          -1.02316897511942    0.02825144554569    2.99241536916750
H           1.39415968422123    0.03304369923320    2.47260187646730
H           0.34225227185553    0.99300479863662    1.85896413599539
N           1.06644632890296   -1.40096305577164   -2.21121682882163
H           1.06160101082963   -2.14300034455227   -2.89968060452175
H           1.63074026783639   -0.64204976160429   -2.57444439403735
H           0.11803200196247   -1.03929561077497   -2.13103819970035
