    26
        -50.44721134  Gyration_radius:  2.5103352367 Dipole_moment: 3.939
 S           0.80009247098966   -0.10601856796601    1.96930248595693
O           1.87271415666908   -0.87234901196176    1.30853803577786
O           0.51508963265164    1.11064178795940    1.22390507168883
O          -0.36418063726653   -0.89472804745382    2.25319760672651
O           1.43000283757104    0.34374577155834    3.34582596309953
H           2.25809048461825    0.70910973832499    3.05316524608675
O           2.45957369688008   -0.16672286447054   -2.33387941263856
H           2.38769110994717   -0.21723876509905   -3.28835222460999
O          -1.00357233689226   -1.24525187825938   -1.47081293945835
H          -1.48332817391228   -1.89840257065917   -1.98243809716123
O           1.37826311761852   -1.92817032457241   -0.84297618770541
H           1.59287141138538   -1.52170367497618    0.14593283304443
H           0.39703526289300   -1.71328302167976   -1.04990318598611
H           1.92346328104525   -1.32547227148775   -1.46890594923476
O          -2.40922183422870   -0.75062303771701    0.56530294271253
H          -1.77164587649804   -0.91380580634920    1.28975097785185
H          -2.52522032872424    0.23144292653403    0.56646478747255
H          -1.59325666311191   -1.05739190697585   -0.64391203487845
O           0.42383711477976    1.19486246742074   -1.44049525315312
H          -0.27896865030543    0.54623254344813   -1.58268328696009
H           0.51209044919266    1.26756481509142   -0.46745630796633
H           1.78610273064222    0.50393468941439   -2.02950794320323
N          -2.20213349804265    1.93508119881436    0.66807292852983
H          -2.17680057876606    2.51963380943337   -0.15830154041272
H          -1.23922725611867    1.80272775261290    0.97718759097755
H          -2.68936192300821    2.44618425900730    1.39297791343763
