    26
        -50.45364687  Gyration_radius:  2.37564240515 Dipole_moment: 2.958
 S           0.83979849074315   -0.09635474861500   -1.58417408613382
O           0.99960251244722    1.33607203515114   -1.67659946567842
O           1.31805856295353   -0.67537820815195   -0.34842957496737
O          -0.53439464205862   -0.52255180206278   -1.86593453587598
O           1.73423232578661   -0.72626940922202   -2.73011555769414
H           1.53645106460257   -0.17423352318420   -3.47935566098966
O           0.56695007792001   -2.93069104672403    0.96989055409762
H           1.13388455625822   -2.54252761540545    0.28573805036120
O          -1.29350856144601    0.70992196589926    1.41193272309499
H          -1.77376479001204    1.20072523741716    0.69168232748722
O           1.27271752447175   -0.79559302575583    2.43134483840409
H           0.58802701605394   -0.21335260255626    2.76925024785722
H           0.84557498001255   -2.47095015908747    1.78665484293721
H           1.41422692049037   -0.55216168973724    1.50154764293293
O          -1.41584983947402   -1.50915214622393    0.27377879399810
H          -1.12092487713215   -1.19125328607487   -0.65653352081628
H          -0.67759236771793   -2.16523808994681    0.60016506410235
H          -1.37028259945194   -0.61219190698423    0.85736637854237
O           1.06416170715860    1.86273814231652    0.90844388818596
H           1.07060321901185    1.76758499427885   -0.06705853704125
H          -0.39374470927250    1.10196039679683    1.35949245772152
H           1.95102828522767    1.65062611283535    1.20559404765780
N          -1.97338403563297    1.81496925637542   -0.89465443445331
H          -1.55088062262646    1.06830477190605   -1.44306347220594
H          -1.36553923359382    2.61952907181121   -0.99301319063622
H          -2.86545094473648    2.04546727494102   -1.31394982087723
