    26
        -50.45364627  Gyration_radius:  2.37562536437 Dipole_moment: 2.946
 S           0.98744058666615   -1.05684033515288   -1.06279652665468
O           0.05161943244666   -2.15388131436726   -0.98105628450987
O           0.39946157713005    0.20691445723353   -1.44776764576334
O           1.78531357252848   -0.91300570273748    0.15862731082053
O           2.01385408802672   -1.42341300947810   -2.21281596201484
H           2.20738713239035   -2.33841198474419   -2.03806073083601
O           1.16466342568284    2.76830443700311   -0.92661310665977
H           1.26612825130954    2.00568848240373   -1.51591236684008
O          -1.17799461521825    0.50851424122407    1.58600133132353
H          -0.89476889004632   -0.33106718568810    2.03868745526534
O           1.14669634956523    1.30885239951976    1.14991781603328
H           1.51944681586386    0.42503514680761    0.78429032284850
H           1.19204758285775    1.98783299040506    0.36381430948046
H           0.12120452799544    1.07093982679696    1.34768414397566
O          -1.45916944381424    2.22896253441703   -1.02610900594808
H          -1.92716890150090    2.06753652000055   -0.20328654430875
H           0.21479036068834    2.99029127418701   -0.99918082373963
H          -1.00039221949707    1.40351603313405   -1.25456529394651
O          -2.13666712544138   -0.73606093812818   -0.57443766246227
H          -1.38797886419161   -1.34661903457510   -0.73995728230861
H          -1.60908986813024    0.16427071369597    0.77215367582507
H          -2.39931470938022   -0.39338511679470   -1.43090103846797
N          -0.14980297961292   -1.87249893795237    2.11264102359619
H           0.19027667578070   -2.30750918524769    2.96106483572429
H           0.64400768727251   -1.73142672643347    1.49075540733432
H          -0.76199043933138   -2.53253957555010    1.64782264225818
