    26
        -50.45364690  Gyration_radius:  2.37561414729 Dipole_moment: 2.955
 S          -1.25268964856198    0.65638484419934    1.10641754520671
O           0.07730362583250    1.19734840577954    0.93445561859978
O          -2.16517194765222    0.95328356440261    0.02700183760503
O          -1.20061836377442   -0.77625340570775    1.41333981133418
O          -1.83917116462003    1.35738384172503    2.40039082449181
H          -2.76465009194749    1.14101741022869    2.35631898038925
O           2.47928402267492    0.35785464195755    1.89097128322968
H           1.68366590997463    0.88810083190927    2.05208860731142
O           0.76694846232721   -1.05810093729086   -1.56863068979420
H          -0.09167711880772   -1.55811404800855   -1.62210442957950
O           1.13438472788922   -1.52816687815098    0.85623067190210
H           0.18576851369418   -1.29991919223909    1.17522424170222
H           1.08636795181929   -1.32930922073407   -0.19483331476607
H           1.76344885224422   -0.83210323881511    1.30550697911000
O          -0.37171564537090    1.34052009398014   -1.86951771043516
H           0.47340478470052   -0.13310885488343   -1.72464198248893
H          -1.10963948905764    1.23574806243750   -1.23293042973348
H          -0.02725976625638    2.22608176604310   -1.73920479624439
O           2.40887057017114    1.42814033401006   -0.56692967192455
H           2.86876260960852    0.76577421317905    1.09215829598659
H           2.36193250006730    0.84479726308680   -1.32820245428898
H           1.50777928988294    1.49717135406217   -0.21053835339408
N          -1.73429077715522   -1.85764407459715   -1.23753675253783
H          -2.18755600975118   -2.75961435092953   -1.31290855924885
H          -2.29688145194855   -1.18297367998981   -1.74232010472604
H          -1.75660034602775   -1.57429873568667   -0.25980542767377
