    26
        -50.44195662  Gyration_radius:  2.44545411284 Dipole_moment: 4.534
 S          -0.02401736463813   -1.62054588975716   -1.01986810353459
O           1.31337404291821   -1.01416587396955   -1.15990726531264
O           0.03772431455389   -2.86028769697053   -0.27987648474353
O          -0.98530024655517   -0.68271899246406   -0.49224868629695
O          -0.48515706510052   -1.98933219754687   -2.48164064909059
H           0.06546427762099   -2.73056353590728   -2.71431828866266
O           0.52063826209639    2.75234326291731   -0.11739199636907
H           0.68903196116878    3.59923790135762    0.29823418890428
O           0.31591697765553   -0.05199339347370    2.55777228557299
H           0.79489374342162   -0.28992050558265    3.35376218890160
O           1.79622346377847    0.65009421188411    0.56295478929757
H           1.23968446305665    0.35468126625798    1.35986039747699
H           1.62216917614264   -0.09551433056744   -0.22828862143682
H           1.37883716688110    1.52601852376897    0.22973186823403
O          -1.12709980321563   -2.09956016972528    1.92419043555421
H          -1.94767371281973   -1.76582482478522    1.55169484288240
H          -0.66207829056439   -2.51866070162983    1.16231012498342
H          -0.23969297824207   -0.85800565152784    2.32052151835015
O          -1.48174152480228    1.50348390657780    0.97878182123934
H          -0.34915918510726    2.41282455501361    0.23817197551038
H          -1.48723280807052    0.74905077145602    0.36070196749486
H          -1.10000351712591    1.15474062291038    1.79373151193220
N          -0.04652065920211    1.06412190621029   -2.80706293010562
H           0.10845094459059    1.82744778858805   -2.15832625414596
H           0.80680268553153    0.51926220000378   -2.83283994570186
H          -0.75353431397217    0.46378685696332   -2.40065068093538
