    26
        -50.44195660  Gyration_radius:  2.44548178084 Dipole_moment: 4.532
 S          -0.45935646552201   -1.79857805529177   -0.47065692511055
O          -0.13578306166008   -2.82933076523758    0.48921321418051
O          -1.70099726501495   -1.09350671508074   -0.10031125616583
O           0.62589456330027   -0.87997945189964   -0.71636850942988
O          -0.76913956931882   -2.53024852753996   -1.83220871417588
H          -1.35414885427344   -3.23883646312322   -1.58237544344650
O           0.97801052366619    0.55075564536805    2.32046725231283
H           0.95289610043978    0.54927312657604    3.27908959177586
O          -0.54364225786566    2.69867300644567   -0.53123967157362
H          -0.49709900564300    3.62981199381381   -0.30957756860606
O           1.75361121033466    1.50855873147611   -0.25349107541818
H           1.82413401477976    1.39342952147583    0.70213642162555
H           1.46464702053619    0.64027516848918   -0.59078975816234
H           0.39276512292448    2.35172272279859   -0.56243396955854
O          -1.29781884488248    0.95411329926644    1.17078092401705
H          -1.52479738864183    0.03720545897870    0.60501023436874
H          -0.41886132082198    0.78241406810139    1.65029376059211
H          -1.10742876487967    1.68271236042956    0.47406743932905
O           1.94989798910070   -1.73366457534496    1.60396057565928
H           1.17636040468905   -2.25674947482437    1.28708674961843
H           2.47859886239859   -1.58409417040539    0.81553626678880
H           1.35576140762317   -0.34431829298232    2.05452021016337
N          -1.34734953402632    0.40476368505555   -2.65224776464624
H          -1.17341019552167    1.30507170210632   -2.22013640142395
H          -0.52513589256099   -0.16590059837336   -2.49828966771203
H          -2.09760878916175   -0.03357340027871   -2.13203591500510
