    26
        -50.45364685  Gyration_radius:  2.37566516028 Dipole_moment: 2.959
 S          -1.18389252508641   -1.03756109810137    0.86384515631061
O           0.06647520015456   -1.49033536934580    0.29579339899345
O          -1.04937133914930   -0.30022772926100    2.09846791936328
O          -1.98128617768453   -0.31529727728070   -0.13207224989826
O          -2.00175259354674   -2.35010476765962    1.20775723265945
H          -2.70474447824125   -2.02232998440758    1.75880790104181
O           0.93357799343084    1.72116966507526   -0.57867164805589
H           0.15124960981669    2.23328547621500   -0.23805447905970
O           0.76708727279541   -2.01866334789396   -2.27710250143788
H           0.37671929130208   -2.35983323030440   -1.45776297077630
O           2.61699425330365   -0.93401231485472   -0.66716260867598
H           1.67592046961537   -1.77260865947474   -2.01296927229223
H           2.75485931867910    0.01601659010837   -0.68773530240202
H           1.83188809074745   -1.09172770088229   -0.11715140665028
O          -0.42053532000298    0.20994751700545   -2.03392061581756
H           0.23979615395799    0.85020128878028   -1.48531174102111
H           0.06939209020052   -0.68332210632034   -2.24398176122211
H          -1.14310877110254   -0.01946308739322   -1.34193054897823
O           1.43301783478014    0.52782745272322    1.75974310822543
H           1.24803912446005    1.26617505247617    0.23378715965313
H           0.51886599319302    0.25528604315295    1.98531565979130
H           1.99842869359620   -0.21294111584076    1.98648140020837
N          -1.32247221936587    2.42136318196474    0.61472850755407
H          -1.76751542959507    1.52488846791780    0.42765837307543
H          -2.00092063089834    3.15126799545542    0.43683903907684
H          -1.10671190532729    2.43099906821362    1.60460227035235
