    26
        -50.44721169  Gyration_radius:  2.51033657088 Dipole_moment: 3.932
 S           0.42870769228756   -1.77112586610423   -1.09636862628650
O          -0.55297727932424   -0.75866143298110   -1.45472004695526
O           1.78960136078841   -1.20599778738605   -1.14826312980105
O           0.14246755224710   -2.44023747535809    0.14002166791965
O           0.40712914855129   -2.85000395158939   -2.24932817761600
H           0.75689044757743   -2.34361897721788   -2.97466669048774
O           2.08554719236711    2.52779980822203   -0.89176917220565
H           2.17089108980658    3.40569549897007   -0.51697597542459
O           0.33077698512711    0.88234089185242    1.95778666184010
H           0.50976687211878    1.10704872222967    2.87211005882738
O           2.41526266920927    0.44779025622224    0.54352304196776
H           2.17488053474593   -0.33710518682437   -0.17378138138095
H           2.43719539248026    1.29537895490673   -0.03370019770322
H           1.59781397599995    0.55883914739927    1.15287068264042
O          -1.21541561339131   -1.11133625749163    1.99534241793422
H          -1.99085129771486   -0.84803899660467    1.44109281753696
H          -0.72883176131649   -1.74763594904808    1.43294320770380
H          -0.30153882170770    0.06657873188419    1.99452290073296
O          -0.39509588683672    1.77179229604967   -0.62563298151717
H          -0.48756027406250    0.88584875109199   -1.03362093732805
H          -0.41539664404332    1.61411069567281    0.32806173234150
H           1.10837902689326    2.33263194385195   -0.94881610639656
N          -2.97899742688405   -0.40873274844525    0.08160013889233
H          -2.24243448460483   -0.59229196938494   -0.59959913940574
H          -3.29273107824484    0.54325849339286   -0.06142815501094
H          -3.75347938206977   -1.02432760331040   -0.13120462081558
