    26
        -50.44195665  Gyration_radius:  2.44542469274 Dipole_moment: 4.532
 S          -0.19290167940614   -1.36398787845769   -1.32994132596876
O           0.97947785516704   -2.15301612427708   -1.63244346693871
O          -0.85065326461582   -1.83467308904811   -0.09639127982865
O           0.06281219102567    0.05558081298206   -1.29305472336165
O          -1.22438774057575   -1.62269230482428   -2.49369043087921
H          -1.22188557351376   -2.56955910692534   -2.59449018166641
O           2.20593465924799    0.27126660767118    1.30562365994429
H           2.91031282316247   -0.05613256519935    1.86800956348374
O          -1.39577946604364    1.62640624699676    1.80723807452181
H          -1.42992068544639    2.21250073331623    2.56463729878998
O           2.82631506886987   -0.38838401504036   -1.11435065050917
H           2.24247356663077   -1.15257911276279   -1.33228250060530
H           2.52225104884684    0.31870461016979   -1.68968295587792
H           2.45833066367093    0.00602716949229    0.36723908512870
O           0.51475033306793    2.26377266267595    0.15964463146953
H          -0.75942058509652    2.02584942623958    1.14869931425898
H           1.30343926224312    1.92422554151323    0.60027848739382
H           0.29788257130415    1.59607498462135   -0.51737828098840
O          -0.15206059866170   -0.59959566835735    1.89304245394386
H          -0.49065464851589   -1.18475776342213    1.02395878042056
H           0.78922180672997   -0.28542995938397    1.67545415740829
H          -0.73734254004800    0.24265708489861    1.91838010944736
N          -2.91644498713649    0.23387221391238   -0.67396587973356
H          -2.15594782850100    0.34694647930275   -1.33294691083815
H          -2.87900279220074   -0.72853677095820   -0.36091348125375
H          -2.70679949020270    0.81545981486319    0.12932644223729
