    26
        -50.44195664  Gyration_radius:  2.4454401042 Dipole_moment: 4.532
 S           1.32684909596257    0.05523295028820    1.37947827492197
O           1.05525961381531    0.90765322322417    2.51445272484292
O           0.60789883735484   -1.22799351517152    1.49022150514655
O           1.08805606203122    0.69568208691046    0.10875940483372
O           2.86065546777647   -0.30375202830364    1.44068238214113
H           3.00067556009882   -0.55252440212698    2.34910279520786
O          -0.97168001303331   -1.49896948286317   -2.16078662593627
H          -1.64533199169649   -1.70816958217507   -2.80944257352396
O          -2.23752811942288    1.25177628828932    0.26643052285297
H          -3.05479699942562    1.44993616478051    0.72732127010933
O          -1.53368768641426   -1.23138489497909    0.31344274760002
H          -0.57902690780637   -1.27158210994419    0.86064806433057
H          -1.82744014571429   -0.25895175475242    0.32452331679936
H          -1.31463706190203   -1.45417270493164   -0.66377536927666
O          -0.52122819883897    1.05911953201399   -2.00522502921216
H          -0.73699943876001   -0.53446339369215   -2.27408641150173
H          -1.27368561854665    1.38111598838631   -1.49375039958967
H           0.21130667430326    0.99902603612496   -1.36413918818854
O          -0.40646477863688    2.72136073726325    1.34525904471653
H           0.11429945384135    2.10885321209212    1.91622489778871
H           0.20278854136360    2.97627905137871    0.64721833611476
H          -1.53282251726434    1.82828720405036    0.69728887384508
N           2.01169621149932   -1.97673298812382   -1.02950564511986
H           1.17794140211578   -2.01122597082660   -1.60494526649710
H           2.20121520435314   -1.00141121465500   -0.83398334215951
H           1.77668735294888   -2.40298841226534   -0.14141431023957
