    26
        -50.44195667  Gyration_radius:  2.44542354517 Dipole_moment: 4.533
 S           0.80405082016622    1.21620226719430    1.24139038820380
O          -0.47603037157401    0.76001393978924    1.81515049064516
O           1.92646361942055    0.72296196389066    2.00650005612597
O           0.89491952045447    0.92199691452325   -0.16826576176723
O           0.80885474498243    2.78545530606603    1.39226797157709
H           0.92793172249311    2.92457403190662    2.32671330900037
O          -2.32559074258418   -0.54237034302199   -1.46859553423340
H          -2.88103061291893   -1.12694367132511   -1.98638251340312
O           0.78326319883624   -2.45148617343406   -0.14542042283093
H           0.96005862331707   -3.31462234929306    0.23318722107170
O          -1.32709865938499   -1.27425203889846    0.76226333526460
H          -0.49394311261416   -1.75455950132680    0.43478134168676
H          -0.97790916005082   -0.36036038977054    1.26749161589561
H          -1.82910264005004   -0.96483900397283   -0.07725560646013
O           2.87714007450039   -1.00554769457942    0.30306138089864
H           1.60460019428791   -1.89794396815829    0.03799719223621
H           2.98916700260312   -0.42340019124828   -0.45323333869469
H           2.62339598601023   -0.40436449123192    1.04232958712811
O           0.15888835034917   -0.61506245710986   -2.23852598950661
H          -1.43591320294897   -0.49731501508980   -1.92104856142863
H           0.47766974437730    0.08047185564537   -1.63369194736584
H           0.47979034818437   -1.44193093234029   -1.85800518925093
N          -1.75995174023184    2.41305463859505   -0.30609174184763
H          -1.88572765443849    2.22052023150408    0.68019551742034
H          -0.76127221096688    2.39596299724618   -0.47269597625060
H          -2.16262385221779    1.63378408443039   -0.81411684411073
