    26
        -50.44195665  Gyration_radius:  2.44542095991 Dipole_moment: 4.532
 S          -1.59145015382830   -0.92937873185034    0.51951958361341
O          -1.81124636594819    0.51156624943799    0.74579847631166
O          -2.43439041852315   -1.42740518215274   -0.54347536186704
O          -0.19346943865544   -1.23632454523746    0.33688067651593
O          -2.05884260541350   -1.64920812382044    1.84187724490692
H          -3.00747326471291   -1.56896201922224    1.82232848046549
O           1.95468480228444    1.81662118247120    0.85942638679447
H           2.67515468417554    2.42556244968668    0.69075485958752
O           0.49612309309468    0.48737631308588   -2.48205873712434
H           0.27613413055776    0.85524028188749   -3.33990324088401
O           2.24765895383592   -0.42811316940981   -0.42358265787322
H           1.99156699066661   -0.19769268602376   -1.32514089399418
H           2.21491202840984    0.93192625169962    0.47499092186797
H           1.46474618990118   -0.86956577444575   -0.04490944758790
O          -0.22492141507005    1.92413674830347   -0.46230795392424
H           0.03328614074575    1.37256600173554   -1.27542440394067
H          -0.96240324200695    1.32578289106743    0.09489374486463
H           0.61188476148203    1.97280646864267    0.12929581341032
O          -0.62004081224552   -1.84017865799271   -2.36854662260149
H          -0.03344759975872   -2.41383035498513   -1.86828745529194
H          -1.40653734401135   -1.72206591092809   -1.78558692542237
H           0.05392705098464   -0.41709482220894   -2.44978621128868
N           0.12722277191331    0.22765405784378    2.99108363862699
H           0.10507581728777   -0.64264552802047    2.47391845043747
H           0.84968943890176    0.80520318472246    2.57641833557071
H          -0.75784421409894    0.68602341570715    2.81182331883090
