    26
        -50.44195667  Gyration_radius:  2.44539062795 Dipole_moment: 4.532
 S           0.85819240399519   -1.61897602121289   -0.55575364977470
O           2.26966058059817   -1.74213255345945   -0.27098647872793
O           0.04377333124323   -1.92166269618888    0.63629207463044
O           0.49830787283515   -0.35115210446239   -1.14316102153404
O           0.51057988524690   -2.73797656125686   -1.61044997570824
H           0.92352709401212   -3.52020090123644   -1.25785961186793
O           1.28254340387976    1.77848661543186    1.35502572111912
H           1.80342079941025    2.06632392972873    2.10699233452391
O          -2.47556208462329    1.16933376985231    0.60266891653354
H          -3.01001342085742    1.86660928564726    0.98543759640212
O           2.94222082306419    0.77469850476382   -0.35204533471322
H           2.61337138958624    0.98859710264293   -1.22927490418671
H           1.93987162555285    1.38780122130334    0.69931494707989
H           2.83100069706000   -0.20226987052958   -0.27779778087231
O          -0.57532099582063    0.07288135067172    1.90503772996997
H          -1.41204024921645    0.44788790806574    1.44478692931799
H          -0.31503938061883   -0.85170121977760    1.36674511740563
H           0.17349691491918    0.73284173361563    1.71574493681766
O          -0.51965968229316    2.11001900916985   -0.83265514201690
H          -0.19345568765683    1.24600528839588   -1.14619489627601
H          -1.85842491052462    1.59457925620356   -0.05808053648505
H           0.12115311516375    2.39163584165122   -0.16817365734259
N          -2.31067095801431   -1.53455707765378   -1.14881310139174
H          -1.47523880698165   -1.27267792006102   -1.65765254726874
H          -2.01117992029221   -2.17382615101570   -0.42263798427339
H          -2.65451383966420   -0.70056773029296   -0.68650966136034
