    26
        -50.44721163  Gyration_radius:  2.51035910056 Dipole_moment: 3.934
 S           0.70392775210484   -1.92835097291542   -0.55607448230735
O           0.09663069843541   -0.94869237165015   -1.44414181502486
O           1.98801532381483   -1.42252827784844   -0.03703364949429
O          -0.17666208619573   -2.39607787999210    0.47546137453553
O           1.10277414770926   -3.16560727142777   -1.45271232830464
H           1.79186003226166   -2.78487575214397   -1.98662063461725
O           2.49907168022133    2.29671699806824   -0.11454050354373
H           2.49085203301862    3.21746301269201    0.15117763380653
O          -0.50943593964114    1.15311344660954    1.76927167860326
H          -0.74415955560401    1.50587504859337    2.62890790023618
O           1.93637124453914    0.44494863076490    1.54358044672155
H           0.94669996058725    0.67229074413291    1.68733201506692
H           1.97206815954632   -0.43032992898730    0.89469149933704
H           2.30052800048092    1.19550325947384    0.94683037850899
O          -2.09112669639197   -0.76086062884656    1.31996615051305
H          -1.16569127434652    0.37286424363316    1.60446598901251
H          -2.50036450915702   -0.55776697101950    0.44300402242124
H          -1.46740895938393   -1.48976159091493    1.12599074402520
O           0.10709199444645    1.67080761742979   -0.94051486293265
H           0.12392962006713    0.73731673072512   -1.23755949395374
H          -0.35893731727616    1.65794299927626   -0.09346978576354
H           1.64019322212352    2.12758724744174   -0.59411036011430
N          -2.71519701932628   -0.29389550099888   -1.26054594924480
H          -1.77164684796316   -0.60127275663309   -1.49602354402643
H          -2.83458790646444    0.63596752954856   -1.64298293792819
H          -3.36479575760717   -0.90837762501011   -1.73434948553438
