    26
        -50.44195661  Gyration_radius:  2.44550009051 Dipole_moment: 4.533
 S           1.51700113427511    0.53577432250844   -1.03868552673222
O           2.23193353116298   -0.50703928830217   -1.73856246993671
O           0.29980768893140    0.93389172187834   -1.77075773783665
O           1.23288225684732    0.21388005451776    0.33886940875827
O           2.45360921954976    1.80387297330461   -1.03834262167277
H           2.75402230364860    1.86568720158145   -1.93981301534766
O          -0.81646473321735   -2.44492756958881   -0.01583573803994
H          -1.12680381527158   -3.23826866453821   -0.45620604936350
O          -2.37659324407919    0.89980222768666    1.18471071016399
H          -3.23078903077365    0.74374939949373    1.59007542409378
O          -1.70577882050899   -0.23106462514352   -1.00169956224829
H          -1.35973440278351   -1.11690442365748   -0.64464230420530
H          -2.03983870427835    0.29618641406653   -0.18749542320936
H          -0.82709027597794    0.31256325585375   -1.38229947804473
O           1.76442705563415   -2.50052686572136   -0.12592703403928
H           2.09301701340023   -2.11257918117263    0.68952842536438
H           0.18894735113813   -2.47760132254384   -0.06782586710886
H           2.00815093895254   -1.84940459714991   -0.82522751343951
O          -0.52614006620545   -0.63873783740086    2.17443525279671
H           0.21433300120608   -0.25148332217986    1.67149845647667
H          -1.69600308977567    0.40250696806293    1.72110177714654
H          -0.69913230299972   -1.48748590757843    1.74879456153593
N          -0.04923057277463    2.97922022221158    0.36841710328346
H          -0.13145845970933    2.91973155130169   -0.63917851139207
H          -0.89312024015906    2.57597994058156    0.75920331746296
H           0.72004625376199    2.37317736193272    0.62586442552872
