    26
        -50.44195667  Gyration_radius:  2.44541521865 Dipole_moment: 4.532
 S           0.02467170171071   -1.73665157367595    0.80624579170222
O          -0.70764522685826   -2.78251963431325    0.12922193429224
O           1.33837958521126   -1.50902264957673    0.17519115661520
O          -0.72208992415641   -0.51011251856064    0.94729178117151
O           0.33072899898313   -2.26679990010635    2.25903219708533
H           0.65868899643385   -3.14917363941048    2.11558807384509
O           1.32538697986153    2.46723722474283   -0.12506917983884
H           1.49789918532696    3.31396797846173   -0.53933929458510
O          -1.13773618946971    0.38262835611801   -2.28111477714212
H          -1.26136483721143    0.19925444231992   -3.21422774398703
O           1.31107769272704    0.29858580706708   -1.46890628461065
H           0.35546613833847    0.30963079068250   -1.81354623850341
H           1.43335212594010    1.16495703059994   -0.93315316655935
H           1.36684515234620   -0.52526060995027   -0.74059185036609
O          -1.22191590271298    1.97861852020314    0.08308701551591
H          -1.12926538508662    1.14027165536219    0.57278031627967
H           0.34646182802131    2.42389348934015    0.06994784835259
H          -1.46676904570450    1.71746491117792   -0.81319918721343
O          -2.56718073218957   -1.34247799804818   -0.99396335985678
H          -2.90846662651298   -0.90266198210565   -0.21069932354245
H          -1.69726782468993   -0.29693460708026   -1.79143913721953
H          -1.92382903460110   -2.00364643306569   -0.64562461579194
N           1.79683336031607    0.46494809077586    2.35996672533907
H           1.80783141673810    1.28184741836913    1.75992914133353
H           0.83772559698385    0.14450257492427    2.41303210403578
H           2.31218198024599   -0.26254674425457    1.87956004365312
