    26
        -50.44195661  Gyration_radius:  2.44546776102 Dipole_moment: 4.533
 S           0.92478461259223   -1.66431622607856    0.20437258904419
O           2.31026593947499   -1.69767152302560   -0.20514991423922
O           0.77666372487100   -1.05865236912934    1.54126031476651
O           0.05317504428462   -1.04481905117103   -0.76437675690808
O           0.46248076740390   -3.16377456941101    0.35705547609715
H           1.16382596030380   -3.56893587981808    0.85775068085047
O           1.24218978062802    2.11393550780234   -0.79534690081817
H           1.93710623786618    2.77135810415299   -0.72813254566303
O          -2.21254062074375    1.49171743692101    0.85967484145201
H          -2.69661185816234    2.31463923689331    0.94234174650755
O           0.26185944086170    1.32872267837099    1.45985256955190
H           0.49752707893723    0.25637556169695    1.54243311222295
H           0.67720191071212    1.64508473665350    0.58837504839508
H          -0.75431762628210    1.39114326828430    1.33324001273725
O           2.24384134984744    0.10957054472004   -2.08201525929864
H           1.64555618733420    1.33837316596791   -1.29579645854639
H           2.41863885021493   -0.57737790707543   -1.39652021730699
H           1.54151648311700   -0.26231333334825   -2.62227661747496
O          -1.32142944327536    1.11707203541804   -1.55621041707312
H          -0.95062716787689    0.22941310263529   -1.39568513554858
H          -2.04883608187381    1.33786491962963   -0.11384612345132
H          -0.55553138114509    1.70283955724201   -1.59817592630434
N          -2.11920164248532   -1.70652436778016    1.26921192247531
H          -2.43718745349188   -0.74479714045759    1.23090176692800
H          -1.66208872012296   -1.90666648797799    0.38807358543635
H          -1.39826138298940   -1.75226099111317    1.97898861617852
