    26
        -50.44195665  Gyration_radius:  2.44541253224 Dipole_moment: 4.532
 S           0.90698483499803   -0.02020977605988   -1.68627694156028
O           1.19585814096226    1.26872383690570   -1.02976419976437
O           2.09472233338447   -0.83808592410910   -1.78039558401287
O          -0.20996626107845   -0.69628923048669   -1.07204231111490
O           0.48376991290112    0.33379156153082   -3.16305186233154
H           1.29753009122005    0.60912121806002   -3.57380726359601
O           0.97694562656554   -1.23373147020837    2.04157614880778
H           1.67228355497446   -1.41446499435388    2.67676025830406
O          -1.80193846659931    1.43830943012859    1.59490535337195
H          -2.21834822207049    1.63114697175033    2.43619080731001
O          -1.71653947822211   -1.11604139331215    1.10605930587836
H          -0.98963759509333   -1.41946974696353    1.66375011356939
H          -1.95324404763857    0.46981775498950    1.40167548024134
H          -1.33306186212459   -1.03990189155582    0.21254160976283
O           1.48383153299504   -2.67900235268337   -0.03944217380427
H           1.18725863376479   -1.80044276857333    1.23582926312925
H           0.64031832715291   -2.95707731030181   -0.40628664818278
H           1.84923880243984   -2.05223206845336   -0.70730168365324
O           0.73218622552381    1.24652200330324    1.36938048196839
H           0.95907314779161    1.29882667995870    0.29326049698763
H          -0.27125855238277    1.43929098580594    1.46163097470142
H           0.86158263943578    0.27612611655927    1.64080954628833
N          -1.65370897041055    1.93806775171556   -1.58866575952737
H          -1.49794948690581    0.96814295125123   -1.83455836588607
H          -1.94718611101894    1.95859013442369   -0.61864687385537
H          -0.74874478056760    2.39047153067934   -1.63413017302829
