    26
        -50.44195660  Gyration_radius:  2.44549005635 Dipole_moment: 4.535
 S           0.66132511369428   -1.79594140628443    0.06591907042806
O           1.20757625265180   -1.06626385321483    1.22571772629895
O          -0.26872307975583   -2.82070314466345    0.48214314911325
O           0.12211939076732   -0.89823205021218   -0.92675563285683
O           1.88665475129212   -2.53816954176341   -0.59215140709241
H           2.08960644383043   -3.23436814070924    0.02497760457137
O           0.75174628931813    2.70116335705977    0.00172213005964
H           0.55282486069942    3.63389262686300    0.09551207520947
O          -2.38585055539967    0.56053454804486    0.79882312569831
H          -3.08630267565624    0.57051945007780    1.45370303986566
O          -0.97806706696691    1.47703786772792   -1.50819465496888
H          -1.73916025379631    1.37131091987790   -0.92421953053755
H           0.15435690742931    2.33861530573252   -0.71237858281315
H          -0.53193589517007    0.60979712597918   -1.49943229230854
O          -0.01620410504244    0.98795283751875    1.72929250693209
H           0.37659481849859    1.70567205709207    1.11038001695578
H          -0.95794842957101    0.80734565114501    1.39387392466638
H           0.56000122016159    0.06880331855117    1.54091580872195
O          -2.48988927139672   -1.74713925888296   -0.35891047494361
H          -2.25155736366238   -1.61476098610587   -1.28039235193757
H          -1.73814924196758   -2.26104003368574    0.01945615572703
H          -2.43579571558355   -0.34347980426145    0.35737166739112
N           2.87653524683046    0.39703983687993   -0.76287961206836
H           2.98817829290122   -0.02360400011219    0.15151788043451
H           2.21621482108886   -0.18502501292244   -1.26341151251112
H           2.43584924480493    1.29904235026937   -0.62259984003453
