    26
        -50.45384623  Gyration_radius:  2.41014849448 Dipole_moment: 2.875
 S           0.05878179242520   -0.62919330902265   -1.63502252847898
O          -0.44134774126080   -1.74773415431682   -2.37169128884302
O          -0.91671209145820    0.45355947131226   -1.46703858723644
O           0.72960679859191   -0.92761431602033   -0.38663365386398
O           1.22281211064170    0.02142714289025   -2.54877159456532
H           1.02143196433654   -0.31080171430703   -3.41783413938433
O           2.23197007267024    1.85469727306914   -0.62684196122305
H           2.09566951863826    1.25372073498296   -1.37191213806139
O          -0.15590248540063    0.90213777264546    2.40371591498483
H          -0.74047015924465    1.23237632657302    3.08712097694508
O           2.46499805516538    0.16029025690667    1.36806378106663
H           1.83925641300489    0.42458308227325    2.05272642901005
H           1.97368372843990   -0.45514008563961    0.79733165984541
H           2.55159769867744    1.29073706009751    0.12515072320163
O          -0.87420745289922   -1.45840940844742    1.68748141819376
H          -1.68669462601515   -1.52662650178520    1.13433850500977
H          -0.16623448189435   -1.52908363522642    1.02446263007036
H          -0.47200086402929   -0.03418440013976    2.18118931778994
O          -0.13149723740317    2.12933023150743    0.15614180357935
H          -0.54722353022257    1.43813098320213   -0.53576475098238
H          -0.15296400854106    1.67537665059655    1.07359975689781
H           0.87755762796750    2.15914346489608   -0.14725547988071
N          -2.59901647047619   -1.60215511212572   -0.37984785990739
H          -3.38006519932769   -2.23795296239713   -0.49374067938763
H          -1.88981905747463   -1.86008848673254   -1.06191036785920
H          -2.91321035500792   -0.67652636482538   -0.64705789700467
