    26
        -50.44195662  Gyration_radius:  2.44544047168 Dipole_moment: 4.533
 S          -1.39953609211351   -0.51009545287605    1.20332540571967
O          -0.92082373213139    0.82687217327618    1.60239113144820
O          -2.75159296554307   -0.45267557709959    0.69632971608826
O          -0.47660458785869   -1.16481817654938    0.30806845395836
O          -1.44958400050114   -1.36308951006361    2.52821355354586
H          -2.19012918877470   -1.00090049054697    3.00482483080215
O          -0.54320598616242    0.91940724922441   -2.34607012778284
H          -0.96886472844520    1.53781110569989   -2.94273281484384
O           2.65911471764090    0.87488592296559   -0.15397053447235
H           3.39532632374959    1.26228225557749   -0.62962741863856
O           0.34754672873741    1.95472999034775   -0.15558858282988
H           1.30774567559198    1.60197349928816   -0.07722203355421
H          -0.02653602989291    1.57231900048272   -1.01924118532130
H          -0.22160016520266    1.48522409605174    0.66165737547781
O          -2.28176798737106   -0.91949955981873   -1.82452397942806
H          -1.23105821637599    0.21039603696660   -2.14905111943663
H          -1.80289480734420   -1.74796151888188   -1.73611343233842
H          -2.60337570655787   -0.72131284651578   -0.91366731844672
O           1.44935420285233   -0.96055277290619   -1.54628485405465
H           0.92200241149110   -0.44697756812025   -2.17048917884851
H           2.35384879576917    0.07801913855611   -0.67361902214866
H           0.82298724310977   -1.22747822223995   -0.84796986418511
N           1.54986523346338   -0.57301304473919    2.50668315230970
H           2.16390749053093   -0.15419253758691    1.81741760207720
H           0.93244698389083    0.15866819082053    2.83703924425767
H           0.96342838746079   -1.24002139131180    2.02022099065377
