    26
        -50.44195659  Gyration_radius:  2.44549335402 Dipole_moment: 4.535
 S          -1.25058967987929    0.35035052278436    1.40725109359009
O          -0.71631530796708    1.64344663965450    0.93990189157548
O          -2.65285050937152    0.21543238101496    1.08492016320843
O          -0.44634503289368   -0.75795043850764    0.95242670436223
O          -1.14995009119343    0.38579750050099    2.98012856193800
H          -1.82637692823233    1.00444419470671    3.23792061366081
O           2.62901003073804    0.44356911085455   -0.86785167808282
H           3.30652136566297    0.44511636511777   -1.54558462020322
O          -0.81076317247540   -0.50522919480652   -2.39417736801098
H          -1.29920762935426   -0.29462870174485   -3.19209634904928
O           1.24755227064651   -1.76146032261305   -0.86802816252900
H           0.65384717404579   -1.64531444795253   -1.62001768090063
H           2.25765716334641   -0.48269378576181   -0.81878532472089
H           0.70646778410511   -1.54814903572749   -0.08511818793072
O          -2.49011670732963   -1.60866126958473   -0.76969677592190
H          -2.69958800206254   -0.91387633890275   -0.10202202537502
H          -1.47611169146173   -0.93175569507560   -1.76970800236440
H          -2.01086991610547   -2.27991160764170   -0.27655222863428
O           0.34232098051425    1.50566052882564   -1.25812593634276
H           1.30219854340454    1.18706969489144   -1.08603848680439
H          -0.13474650599053    0.73590488233402   -1.71839623593381
H          -0.12918446201852    1.61366710450199   -0.26896074672348
N           1.83246590455553    0.80611154776741    2.23740954776113
H           2.36336501908389    0.72493203857504    1.37770951201662
H           1.26520438439430    1.64129279708881    2.15760919969543
H           1.18640503583770    0.02683551968434    2.26588251172546
