    26
        -50.44195668  Gyration_radius:  2.445150212 Dipole_moment: 4.529
 S          -1.78828836305784   -0.12252491852424    0.67292282341142
O          -2.55351008361483   -1.28604561544278    0.28668291329463
O          -0.45594705362282   -0.43619848265820    1.12943274688285
O          -1.77633888093170    0.88982624841313   -0.39999071401863
O          -2.55177853982234    0.54063384521239    1.88213975868925
H          -3.45784228235314    0.57286276556684    1.59093365713640
O           0.90974084725298   -1.74638273440531   -1.66225874529545
H           0.87853026856249   -2.23862601948608   -2.48466667212133
O           2.11210920337126    1.76574260213749   -0.53248279027136
H           2.94568859741943    1.98279827915755   -0.95250319282608
O          -0.61178245915884   -3.00187030369931    0.00662387518602
H          -0.21210669937522   -2.91791723219090    0.87645835273820
H          -1.43606001699910   -2.46322283660537    0.06050804235748
H           0.31213025215245   -2.24389729994993   -1.02196995142082
O           2.17127137490410   -0.57073357342265    0.61100581790534
H           1.27745703906556   -0.52193968424997    0.99823722688628
H           2.08667332597552   -1.17870417202236   -0.13375648818603
H           2.25998437903424    0.94521790815374    0.01816851064522
O           0.18753401860823    0.72508906298459   -1.84494415723985
H           0.45162887991994   -0.25491949957800   -1.79953889126194
H          -0.71440817802957    0.83139219194343   -1.22250775615538
H           0.93071542823625    1.24535810421518   -1.36576261494286
N          -0.24409510380041    2.57703612916568    1.51834685164442
H          -0.34596970235562    1.65667636973559    1.92827951257775
H           0.62224555258086    2.57734685286987    0.99211258128763
H          -0.99758181396422    2.67300201267582    0.84852931309853
