    26
        -50.44195649  Gyration_radius:  2.44510623977 Dipole_moment: 4.533
 S           0.80073098460310   -1.27576090720725   -1.18158472220539
O           2.12709584111419   -0.97303073824545   -1.66898665407840
O           0.65441580304621   -1.08860016510894    0.24166829227212
O          -0.22848319505181   -0.53992311763081   -1.94001125326750
O           0.54641757347259   -2.80271629930731   -1.48007314252239
H           0.81628875812804   -2.90670594807913   -2.38735506259624
O           1.17607258271907    2.23078424394580    0.52973104195508
H           1.58247030487883    3.06176077386292    0.27684069949332
O          -2.43584342366575    0.90953904242661    1.04921779594246
H          -2.96725366411353    1.56255408845945    1.50696655302024
O           3.01442578567747    0.42463170753938    0.34387043256852
H           2.86155253380054   -0.21250309464952    1.04676207109729
H           2.80958227679336   -0.06831571034786   -0.48528985877916
H           1.90098081978452    1.53580896397425    0.45115753171634
O          -0.19124979214904    0.43699353055732    2.27767212005680
H          -1.68124865149611    0.66078780662081    1.65501876930295
H           0.11023142122367   -0.27048474317511    1.67777044946478
H           0.34769689198982    1.20400731192894    2.04816093854715
O          -0.88494516165116    1.55703335405128   -0.87032930704333
H          -0.61548854360866    0.62436210398735   -1.38854283504236
H          -1.59624715563127    1.30500067746299   -0.17518785636547
H          -0.06187000549873    1.83961647357328   -0.34579071918645
N          -2.19785287022896   -2.02574057664659   -0.27056110498728
H          -1.27426144612284   -2.22930441287005    0.09149349939240
H          -2.54587185531600   -1.21692931198031    0.23155030491570
H          -2.06734580269420   -1.74286504314203   -1.23416800367442
