    26
        -50.44772976  Gyration_radius:  2.51297139521 Dipole_moment: 2.774
 S           0.47601154801232   -1.50525010968162   -1.40467841775331
O           1.86679138167092   -1.02900526317760   -1.30629864174705
O           0.20597202477127   -2.56348079695883   -0.46066976151320
O          -0.47181341006087   -0.41506119817695   -1.35477703633193
O           0.36311313588061   -2.13789693250069   -2.84937168935633
H           0.95034965231399   -2.88121250249814   -2.76349975850629
O           1.78227489779231    2.83623492228824   -0.63572871492582
H           1.92957654952217    3.65332242750057   -0.15699986167783
O           0.41030473714451    0.55649597227112    2.04883654382689
H           0.64312040037546    0.55824233323499    2.97859135248077
O           2.39252712163018    0.60580496631632    0.43664630802548
H           2.19484646737917   -0.14027217740597   -0.33394327625082
H           2.27706018092323    1.51134621460356   -0.03167381813916
H           1.62226112494907    0.54289987870425    1.11028105100715
O          -0.95756358534554   -1.53507581914895    1.68695988039819
H          -1.80075878139915   -1.22594101530093    1.27790797303272
H          -0.51208191428387   -2.03398709580450    0.96998709922375
H          -0.14598219392112   -0.30082243772621    1.90709385152172
O          -0.63129641678457    1.97707451762113   -0.15220162258442
H           0.80639986064865    2.63518500179990   -0.57391252626349
H          -0.65808654843550    1.17663202678175   -0.71090239236907
H          -0.52377019828066    1.64116731171632    0.74850125658972
N          -2.95403199945938   -0.57329970716700    0.13184639588030
H          -3.32903719870799    0.36229800067922    0.22779150845511
H          -3.69919784392651   -1.17325416929871   -0.19806121630956
H          -2.23698899122191   -0.54214435748843   -0.59172445816639
