    26
        -50.44195632  Gyration_radius:  2.44517509794 Dipole_moment: 4.527
 S           0.38366805090621   -1.64107422158889   -0.90848917447337
O           0.60581897076760   -0.23073789684842   -1.11691310041920
O           1.57009017777967   -2.35615222860984   -0.49669456920240
O          -0.73826634615705   -1.88841570393279    0.01664649792652
O          -0.05579394600585   -2.25409324553283   -2.29284994891445
H          -0.01771720421739   -3.19464356234909   -2.14898821316496
O           1.43918851479715    0.77824094774214    1.99126030514971
H           1.83414042969347    0.65828836221259    2.85686522141275
O          -2.02291434500250    1.84452057912835    0.60193878019696
H          -2.37300104390276    2.57866171011362    1.10871163827873
O           3.02898970495898   -0.34609852929229    0.29291861887281
H           3.00664513328019    0.17992051791847   -0.51090343734555
H           2.06615411850006    0.33422792704067    1.33978200047915
H           2.58890818268873   -1.19346579205455    0.04625400819599
O          -0.94862315122954   -0.16976300838334    1.74112668067380
H          -1.48342245593914    0.59357959952358    1.31213453864254
H          -0.88728237808589   -0.96775378134966    0.98513529743582
H          -0.00263216623273    0.17995079388344    1.86375980235434
O           0.41179867987644    2.28282523964516   -0.20452450387605
H           0.49975659967063    1.46095165613591   -0.72223073382484
H          -1.16383893038608    2.14753831545001    0.19139906992628
H           0.93429234628863    2.13147927297593    0.59272731228731
N          -2.35046833622097   -0.22087322815246   -1.85379267593366
H          -2.44320506817379   -1.07624680188864   -1.31953370029150
H          -2.49757328576007    0.54838483779662   -1.21028664981022
H          -1.38471226189556   -0.17925176957930   -2.15545305457660
