    26
        -50.44721164  Gyration_radius:  2.51035592239 Dipole_moment: 3.933
 S           1.17032675407918   -1.27196603190172   -1.23920812982868
O           0.27002458175050   -2.31966320617154   -0.72353146952463
O           0.40218169494437   -0.11714111191489   -1.67913022665455
O           2.23411389529217   -0.94621746454605   -0.33336921716075
O           1.81220954557600   -1.90816776790897   -2.53418485543669
H           1.03495398537231   -2.22448962341448   -2.98217838004760
O          -0.30261338070362    0.48306994908608    2.09648134945813
H          -0.27933401091845    0.62115083721503    3.04458961565906
O          -3.14479053051613   -1.22218828116008    0.38740047898656
H          -3.85660080124898   -0.90263978966749    0.94386965639672
O          -1.70153527422522    0.82459077589091   -0.33619571057305
H          -0.99060153616654    0.50010646220432   -0.92711969959220
H          -2.71909846454615   -0.41928118511060   -0.02535500401495
H          -1.26307889568303    1.01901406860866    0.50331154312248
O           1.94922544292731    1.19648106948854    1.20929540871212
H           2.22857374286623    0.39772121545593    0.71746661464703
H           1.75073795134388    1.85590268126886    0.49968323266204
H           0.62519716087545    0.77967143215750    1.75324598637089
O          -0.89903937591738   -1.89847667587582    1.38461439340406
H          -1.85415893406660   -1.76246186638949    1.03632172807315
H          -0.33373882847584   -2.12876370639913    0.48138609552942
H          -0.59434693380732   -0.97200651571336    1.70185204212830
N           1.20503777225301    2.57396308859991   -0.98507704189962
H           0.96688490944229    1.67784554106950   -1.40990354821283
H           1.91267537268275    3.00870795853404   -1.56326217422255
H           0.37679417686866    3.15523815658790   -1.02100266798208
