    26
        -50.44195639  Gyration_radius:  2.44508968563 Dipole_moment: 4.536
 S          -1.13006890649838    0.75124880830357    1.35037639236571
O          -1.10622709608261   -0.42668408736395    0.51737378178757
O          -0.76642579253385    0.49188657940171    2.72484101233127
O          -0.31886573280189    1.84312209605202    0.77970261472377
O          -2.61481200727174    1.28107280253850    1.36731584702829
H          -2.61359778621867    1.94258235547988    2.05225358263594
O           0.77486722577796    0.20389406656370   -2.68758948930715
H           1.36966887149288    0.00625924348649   -3.41250262656337
O           2.16247616456653   -1.25099688151656    0.63146518952039
H           3.01859411074095   -1.31191950733575    1.05924785382172
O           0.39757890191560   -1.82121602714300    2.43028791080123
H          -0.31582887170947   -2.29221017895630    1.99148583293840
H           1.48421862112747   -1.47298197689769    1.34245958927372
H           0.00115360938657   -0.95544295261543    2.68664484585313
O           0.17572652347202   -1.91749972287778   -1.30536287954951
H           0.96620016209023   -2.05873504151806   -0.77000397301356
H          -0.45780472408318   -1.47889136383684   -0.70738035673414
H           0.46234583721409   -0.66744471894338   -2.31159695544605
O           1.64158162125915    1.03940220767564   -0.43825692985587
H           1.30978076991472    0.81221656627364   -1.38224366644217
H           0.77454773405205    1.44469764236727    0.10458387957834
H           1.86689948548015    0.15325554227020    0.00501541454683
N          -1.99485255186587    1.50763697300128   -1.65957617586493
H          -1.60514424801807    2.25006448149215   -1.09177615426992
H          -1.24899941389844    1.16783924333790   -2.25599079852407
H          -2.23301251751264    0.75884383075863   -1.02077375163061
