    26
        -50.44195635  Gyration_radius:  2.44524618936 Dipole_moment: 4.527
 S          -1.04665238989443   -1.50948161244064   -0.54025488925570
O           0.33848549489697   -1.10673594683434   -0.57300889127434
O          -1.33367251956297   -2.50350859060392    0.46879125239074
O          -1.95156119683331   -0.35062327522215   -0.42250312509266
O          -1.37333935880123   -2.17194311916366   -1.93305333978692
H          -2.22609988017376   -2.57441580970722   -1.80049444731189
O           0.67936118231108    2.64205717922334   -0.64491514659158
H           1.05184793203138    3.49680808338032   -0.42357837525340
O           0.68986324947846    0.31857119250482    2.46260836422408
H           0.49701140456962    0.40732620562886    3.39778399743721
O           2.22551244129562    0.68060988784101    0.08490252230265
H           1.67835624546462   -0.03112355749115   -0.29627381562035
H           1.39017401008530    1.95720416648893   -0.48975371019633
H           2.07404857753649    0.62786246073224    1.03661136621740
O           0.78040045619367   -2.21551158532491    1.96583433039266
H          -0.06706302675912   -2.42060929178572    1.50523831794626
H           1.45701990770952   -2.35212241808878    1.29737697807906
H           0.72008612306296   -0.67183248758159    2.28148665811801
O          -0.99514219690956    1.47726112240100    0.88755372178161
H          -0.35675287812233    1.01774125803391    1.53065472211162
H          -0.41055788071752    2.01281709902952    0.23632761699259
H          -1.46551232540281    0.67745389472150    0.29526243434737
N          -0.58758521276345    0.67517967782640   -2.86501884516005
H          -1.52535625452685    0.60450265810038   -2.48924967700753
H          -0.14613679306043    1.46832386549397   -2.41387036232823
H          -0.09673511110515   -0.15581106716121   -2.55845765746296
