    26
        -50.44195624  Gyration_radius:  2.44514911989 Dipole_moment: 4.527
 S           0.35979703671122   -0.81103595682793    1.69630865555809
O          -0.72062237569579   -0.09118482884716    1.06670445953880
O           0.11759250081132   -2.23129939724478    1.80839320155228
O           1.65389779428798   -0.53904199618057    1.04259436083848
O           0.49462997108063   -0.25825841616024    3.16657901975287
H           1.08796119791317   -0.87224364298463    3.58820148482551
O          -0.69711031330106   -1.42878800427825   -2.02825404793763
H          -0.56334847017690   -2.14248095083293   -2.65465240596382
O           0.54629462818743    2.22361535971523   -1.61672258285627
H           0.54895756259661    2.67245959424054   -2.46342779349785
O          -1.73469021693155    1.07166258317801   -1.12566506048755
H          -1.69959186121043    0.27877746970946   -1.67482008651166
H          -1.50573702926713    0.76605623413620   -0.22821890059889
H          -0.39624965766408    1.95304468736044   -1.42520302999789
O          -1.79946504936959   -2.47805729769430    0.05997886648781
H          -1.08030134483850   -2.53496413663882    0.73235581135099
H          -2.41239589164778   -1.82981504348832    0.41694822966336
H          -1.12440952221115   -1.85024877836309   -1.21934886531525
O           1.44405484103205   -0.15095605970332   -1.36109664583924
H           0.62021854088739   -0.68136981418804   -1.62990911584194
H           1.19451771918607    0.83880968714914   -1.46442357770633
H           1.58457489497531   -0.32392612535783   -0.28309822957434
N           1.05656458743382    2.33235920729586    1.56647124629290
H           0.94860150571075    2.59939741364978    0.59460609223044
H           0.23683134776226    1.79596341822626    1.82309565387254
H           1.83942759373745    1.69152479412964    1.61260325016537
