    26
        -50.44195640  Gyration_radius:  2.44507311374 Dipole_moment: 4.530
 S           0.65247623787085   -1.41643623496074   -1.11069969861253
O           2.03940068084649   -1.34875047167991   -1.51098226103404
O           0.44789760056670   -1.17471598750128    0.29700461147728
O          -0.18849938031937   -0.53820729255000   -1.94557182675080
O           0.16752880578927   -2.88688546570926   -1.40713448676723
H           0.47881394234722   -3.05636294906342   -2.29099431536308
O           1.49171792993329    2.01916477706713    0.58187886900304
H           2.04497604939856    2.76660357451477    0.34763707393630
O          -2.31348551526305    1.31971007584486    0.87478914377388
H          -2.75767687443588    2.06138858499281    1.28825303837567
O           3.01430099819629   -0.06783559277319    0.53860821655978
H           2.78396714274549   -0.53999300340978   -0.29599850658362
H           2.09541630368686    1.21304522107616    0.55914513720830
H           2.71451882603720   -0.65459240541080    1.23801032708202
O          -0.26099620237459    0.51295155052830    2.25568874335441
H          -0.04321966388933   -0.24746007191235    1.68503729230424
H           0.41055433526816    1.17591266023309    2.05330875133608
H          -1.65063466097804    0.96422465204604    1.53248647761500
O          -0.55818190100741    1.66056693209242   -0.94503268357892
H           0.26491627098401    1.81640640234211   -0.37007176231310
H          -0.41335048673468    0.68510743560231   -1.43370166506599
H          -1.34404353037264    1.54400239702060   -0.29571083570430
N          -2.48122069377870   -1.64113289951582   -0.39551864926494
H          -2.24564573287071   -1.40598536363417   -1.35197442497963
H          -1.62900245115217   -1.98615730405078    0.02883492573225
H          -2.72052803049136   -0.77456922118768    0.07270851825478
