    26
        -50.44195643  Gyration_radius:  2.44516717253 Dipole_moment: 4.529
 S           0.09719000700394   -1.67040604747208   -0.93051050113923
O           0.52042038326139   -1.62740254191570   -2.31162931577777
O           0.93296305683840   -0.89242761001354   -0.04840844671177
O          -1.32677067152384   -1.30978841196512   -0.79600159107224
O           0.20621764545682   -3.17448028362523   -0.47087071697599
H          -0.21231890862712   -3.65967192195664   -1.17526443871884
O           0.42329367104128    2.22505338298022   -1.22902381277387
H           0.24737336140682    2.86286205642783   -1.92319018375923
O          -1.12611721636997    1.30904599374494    2.20841047559222
H          -1.35656282063417    2.10318751419013    2.69276047214734
O           2.04965120962276    0.48140439269187   -2.22461309463198
H           1.49700719184940   -0.31475354996945   -2.40664324900781
H           1.05531191067782    1.55076312494432   -1.62968476756562
H           2.64177573896250    0.20738679340322   -1.51916693254749
O          -1.66745923203090    1.05261591947143   -0.27172490397271
H          -0.86108830075111    1.51847365251429   -0.67797847171510
H          -1.55991319377900   -0.01625634829578   -0.51190859754527
H          -1.56230065682311    1.13162723045336    0.74572159571621
O           1.32570964378403    1.36796976851183    1.33889367950442
H           1.32539056538902    0.46758956313070    0.96397617003296
H           1.27068699315097    1.95538106481813    0.57510049105448
H          -0.13931368307409    1.32961497480980    2.05327426517431
N          -0.97166488999685   -1.91142559218554    2.10018049773326
H          -1.10030274846922   -0.95943752081560    2.42362832548567
H          -1.64876059467512   -2.06830617904550    1.36364027616839
H          -0.06041845169090   -1.95861944483397    1.66103278530543
