    26
        -50.44721131  Gyration_radius:  2.51035774426 Dipole_moment: 3.939
 S           0.26267501324922   -1.95550799723360   -0.79782587315432
O          -0.32759467348989   -0.81945341525487   -1.48919136406625
O           1.68542490067436   -1.69684018038176   -0.50923139488404
O          -0.47913742663975   -2.37818451839367    0.35510684200140
O           0.28266411802711   -3.15186976605118   -1.82844042998153
H           0.91650208273677   -2.83239907816366   -2.46170896172479
O           2.77711807909667    1.89687272874471   -0.46334880817959
H           2.96830494509714    2.78048635377195   -0.14497628007235
O           0.02065700944317    1.05164987252558    1.90114245786820
H           0.00885120634312    1.35571415640502    2.80993056657079
O           2.23279867612462    0.00798178002173    1.15862427730011
H           2.00398637987271   -0.80120975258438    0.46407400405622
H           2.59947040219787    0.74613350676459    0.54796790708702
H           1.33767800923420    0.36718902287960    1.50712730461710
O          -1.90855494035150   -0.55576700673525    1.65431525498055
H          -2.43249029966795   -0.21409093280022    0.88838839608352
H          -1.46015494675356   -1.34951617919282    1.29819356168535
H          -0.77347204577928    0.39615512347086    1.82094426493990
O           0.20422345980343    1.71273794512003   -0.84128489918740
H           1.82909757356928    1.90190611649425   -0.77503338095421
H           0.01294267667964    0.81785678886098   -1.19119948812167
H          -0.09293563820429    1.69316714599439    0.07861625411548
N          -2.90962306530364    0.23581513251990   -0.72006018834970
H          -2.93860665686907    1.20479128820683   -1.01248814757968
H          -3.72921117745223   -0.22445534529624   -1.09497246062897
H          -2.09061367163663   -0.18916278969281   -1.15466941442135
