    26
        -50.44195672  Gyration_radius:  2.44518239017 Dipole_moment: 4.535
 S          -0.13047887629204   -1.52367032390113    1.15214942098706
O           0.88258444382940   -0.57869582071637    0.74898781480499
O          -0.63520407861848   -1.29257901211163    2.48646383258095
O          -1.22907381381517   -1.60193400458744    0.17099752918601
O           0.54004845276865   -2.95038859379525    1.16259403498203
H          -0.10597932398854   -3.50347536149851    1.59087789161038
O          -0.86405141483502    2.30722132169594    0.75570381440492
H          -1.54516717683284    2.89893385107187    1.08067924128474
O           0.16249256597906    0.81843691962911   -2.67684003089498
H           0.10579114698116    1.48796130208868   -3.36011716990995
O           0.16929607132950    1.16260183300306    2.82888837692727
H          -0.20397153720237    0.24986370947011    2.83349561955987
H           1.10526130904393    1.03934487885634    2.64969767666635
H          -0.47142305340704    1.86638155554848    1.57189194890861
O          -1.67709731712390    0.53193160788450   -0.93252220670934
H          -1.38849718823650    1.23120840438862   -0.25428852232603
H          -1.00799177848721    0.59095299365056   -1.70811782812569
H          -1.51255299347276   -0.44686930653678   -0.45641676226162
O           1.53978890994641    1.62884935574661   -0.62353043597077
H           0.83328915332260    1.13230918233132   -2.00607938086667
H           0.92139058817450    2.20998530404473   -0.16378676668170
H           1.50479207294086    0.78654809381085   -0.13304064067720
N           0.89844259196099   -2.20700119518956   -1.82505909830226
H          -0.03193156508989   -2.52462939193462   -1.58204222293157
H           0.78991156310340   -1.35154717529773   -2.35794272183751
H           1.35033124802423   -1.96174012765069   -0.95264340440656
