    26
        -50.44195658  Gyration_radius:  2.44512155453 Dipole_moment: 4.531
 S           0.04873920446674    0.47884238919825   -1.85316405286442
O           1.18396888336618    1.25443180378929   -2.29854909182894
O           0.41137254952998   -0.65420613308198   -1.03677582531292
O          -0.95567719535708    1.33267067514768   -1.19123390785151
O          -0.65106423055920   -0.08430224876732   -3.14871025754844
H          -0.71469923198198    0.67335005126718   -3.72201927136070
O           1.78894683550839    0.86960726415058    1.63829392994197
H           2.28377124544334    1.56954476003479    2.06826152298434
O          -1.67832191023731   -0.81093829522702    2.09446711322118
H          -1.86037231386414   -0.95015384026318    3.02495752554215
O           2.97512496759755    0.40062375740189   -0.60874394990983
H           2.40455961779003    0.81981632849369   -1.29523879127417
H           2.25932109344863    0.69808690360442    0.76422693426950
H           2.90282958872542   -0.54237654774816   -0.77873184722082
O           0.65298007587777   -1.73733468121492    1.40379871313466
H          -0.85536742076642   -1.33127475291996    1.87019528951764
H           0.56687622194990   -1.54109263096538    0.45230088449821
H           1.26090783834434   -1.06812693927950    1.74151877459593
O          -0.70798044633576    1.38819480059801    1.23934058250261
H          -0.85225438561400    1.39568500913108    0.14808220905534
H          -1.20089862657907    0.55922088053368    1.58942711656705
H           0.28142759093868    1.21749642101826    1.39497574967286
N          -2.59354660133333   -1.14682651893015   -0.98206671686536
H          -2.55649753839479   -1.21454211245435    0.02862892678322
H          -2.71312758864114   -0.16715798090342   -1.20917616870381
H          -1.68101822332359   -1.40923838261661   -1.33406538154440
