    26
        -50.44195660  Gyration_radius:  2.44515228653 Dipole_moment: 4.529
 S           1.15731126595752    0.72338367428612    1.34303504458479
O           0.34364848593274    1.21856437925832    0.25923154829240
O           0.58121749835176    0.95495292749440    2.64802315428854
O           1.51056458398750   -0.69689255274754    1.15884380462643
O           2.52007862043065    1.51487920907352    1.30294993571738
H           2.94480509561485    1.28097481890227    2.12255836573868
O          -2.41477850044313   -0.69543642885365    0.57002069053134
H          -3.06334363067615   -1.19332525417215    1.07111285907344
O          -0.06620815172043   -1.37344151307406   -2.44344564071727
H          -0.52528637529503   -1.87925506588964   -3.11558581846378
O          -1.41950061365954    0.72053071508710   -1.69841635816332
H          -0.55825701445520   -0.51127990016530   -2.33035720171398
H          -2.09571272567791    0.34700574473047   -1.11989364325685
H          -0.74057442220640    1.07532425113355   -1.09476719504460
O          -1.88558193760581    1.42405566912255    1.94978634137826
H          -1.73092923723744    2.13911281789602    1.32681980906873
H          -2.21554916681510    0.12563639058476    1.11853100428852
H          -1.00312690627868    1.25520698141512    2.35628462327446
O          -0.23941611396321   -1.97551046162672    0.02991844690215
H          -1.09945179852223   -1.49092538302740    0.27031681112382
H          -0.09434699193950   -1.82206786310552   -0.97405524140635
H           0.57205186312548   -1.43889608187820    0.54518209186776
N           2.60714618528079    0.15230765737997   -1.47785164899091
H           2.85563249138730   -0.45425215788063   -0.70584638913451
H           1.92946473346049   -0.34797605489020   -2.04182212727879
H           2.13014274296554    0.94732345094688   -1.07057325658472
