    26
        -50.44195644  Gyration_radius:  2.44534662715 Dipole_moment: 4.526
 S           0.66882243028566   -1.79398370320991    0.01958100249732
O           1.75525074283453   -2.09873377715247   -0.88338494222958
O           0.86644380841924   -0.57552313098281    0.76671756115726
O          -0.62849801185049   -1.80207493570460   -0.68239134060886
O           0.60253285606650   -2.97506700651113    1.06173092667615
H           0.65112530202379   -3.75858866291823    0.52280146592637
O           0.88316968554387    1.72265116970082   -1.70132666078331
H           1.06515333315577    2.02457622879380   -2.59315241343929
O          -2.19535624799439    1.61444695881081    0.65846533297578
H          -2.69145441149141    2.43204687006050    0.59729808594595
O          -1.32747600052344    0.41954645078905   -1.42212517561685
H          -1.78098536027340    0.85496682614142   -0.61144819674664
H          -0.45612400770099    0.92221762673074   -1.56449816624181
H          -1.04882393160910   -0.59916776917777   -1.11083866433862
O           0.33748260263430    2.03400549792325    1.08227690023338
H           0.58645135271447    1.09487160771588    1.16754644812673
H           0.66173228740429    2.29912830425222    0.21276888773987
H          -1.27879545752338    1.84469291527783    0.98282665242341
O           2.88505040845808    0.24718167081609   -0.99971754677505
H           2.55783737778401   -0.68106234557047   -1.06083545911037
H           1.66815191471479    1.14776063593087   -1.44081176691625
H           3.03056427788021    0.38998976406208   -0.06070448772580
N          -1.82629334619442   -1.29596098525747    1.99892200978238
H          -0.81918603201810   -1.24123053433264    2.08914228023937
H          -2.16032340576327   -0.36192152664903    1.79047733428141
H          -2.00645216697444   -1.86476815953879    1.18067993252480
