    26
        -50.44195658  Gyration_radius:  2.44508862392 Dipole_moment: 4.530
 S          -0.43807185245328    0.24045145086425   -1.84815576750251
O           0.62223069190941    0.69640096776681   -2.71784966535539
O          -0.04360129717665   -0.84197998274688   -0.97949231747487
O          -1.02988736471705    1.36126342324911   -1.09356126806927
O          -1.58589339644882   -0.30449823053965   -2.78133437960178
H          -1.69032263605860    0.37756520563106   -3.43756770726242
O           2.32527426621447    0.64721346188961    0.90321383977959
H           3.03974471806955    1.26961592373729    1.05075681492008
O          -1.07179610316631   -0.18445522538343    2.58390535118016
H          -0.98338273992683   -0.17366789094117    3.53805119429926
O           2.66950854069025   -0.32179909524866   -1.46706135360742
H           1.99704683834353    0.12797673808053   -2.03099008336467
H           2.46933159429330    0.27877183886226   -0.02321260576491
H           2.38881499017558   -1.24051496799369   -1.44413877618892
O           0.74264707557849   -1.66388058350251    1.44826725555049
H           0.40511989575630   -1.56450879848136    0.53861287885874
H           1.52990135714444   -1.10671258524464    1.48354844015674
H          -0.45852000384907   -0.89191984972286    2.23507634373062
O          -0.04639165622267    1.64113492853641    1.12609220906479
H          -0.54340117681816    0.98361139219833    1.73694781878588
H           0.89860876922181    1.28070376235361    1.02941745058058
H          -0.51331846205506    1.55400443092680    0.13327279197413
N          -2.92601000006967   -0.66668525246299   -0.01229715781191
H          -2.59426834004657   -0.62261539261926    0.94455624142086
H          -2.94007167532473    0.28254143135661   -0.36500137796393
H          -2.22329204306508   -1.15801707056431   -0.55105620033385
