    26
        -50.44195671  Gyration_radius:  2.4453306749 Dipole_moment: 4.536
 S           0.24860296817120   -1.78321702796705   -0.65211332652843
O          -0.21430390034240   -0.51783014459501   -1.16846762766979
O           1.57679737829305   -2.13639386485846   -1.09896382955223
O           0.14419150420875   -1.84690208665137    0.81779525763099
O          -0.72410524941189   -2.89556638124643   -1.20159913084946
H          -0.28231324510794   -3.71123757682075   -0.98682489124480
O          -1.64259246395232    1.63522243867146    1.57758151665050
H          -1.81347853606305    2.44332353396309    2.06349097258318
O           1.99616269578671    1.61404651184011    0.23132696605188
H           2.86164340589434    1.85928803417552    0.56359996541416
O           2.39467719381133    0.20584461605348   -1.89801071441302
H           2.16538230658700    1.06466846761291   -0.59581888944101
H           2.22612055712897   -0.72706618352877   -1.62663279605012
H           1.68426352834016    0.41007134895576   -2.51203430298353
O           0.51556119253473    0.31325226780942    1.89826025726483
H           1.12625802140579    0.81271989127206    1.25810079757787
H          -0.38826165624209    0.79811606367600    1.87005496086031
H           0.34718920898109   -0.67951597210090    1.45325199265495
O          -0.62974298788997    2.10149725214014   -0.77328886943495
H          -0.61728298890527    1.17252012817574   -1.07012323560981
H          -1.41661310448899    1.89307292537967    0.63906652923134
H           0.29105448791630    2.31147837768461   -0.57447430517878
N          -2.73138873055892   -1.17279015901901    0.41870386799831
H          -2.68373560009474   -0.26013844100214    0.85718945676093
H          -2.25892138812460   -1.10182473068461   -0.47413250726689
H          -2.17516459787116   -1.80263928893545    0.98406187554461
