    26
        -50.44195657  Gyration_radius:  2.44523534146 Dipole_moment: 4.532
 S          -0.97842906752949   -1.40854498018500   -0.85099153220640
O           0.38631200725256   -1.14202364949341   -0.46571155234255
O          -1.64595893023748   -2.35638181244815    0.01183859130212
O          -1.76166981531816   -0.16617487605017   -0.98811690865288
O          -0.94002377545596   -2.05464656104140   -2.28857119502706
H          -1.83000315670971   -2.36536108039702   -2.42331281691356
O           1.08688360740011    2.55834000241873   -0.36963687139114
H           1.45687972275584    3.37587638482450   -0.03335148447305
O          -0.04399998088229    0.27935068031229    2.56112752572559
H          -0.49676658911927    0.39699111970990    3.39823943668063
O           2.15378807133821    0.46592273211181    0.75045360782547
H           1.72394521052325    0.43873067019550    1.61411213758908
H           1.67902113257244   -0.19483137067289    0.21262639099893
H           1.65138511167306    1.81034985953753   -0.02307824559653
O          -0.05095940722004   -2.25750348623077    2.07064885099387
H          -0.05519642607286   -0.71154824198201    2.38015484677383
H          -0.74048778856541   -2.38527226109961    1.37733192402436
H           0.77643049445712   -2.46570516776002    1.62860314405862
O          -1.06855584751986    1.57638859356746    0.57892112226857
H          -0.69558404420594    1.06493163478685    1.37385162834942
H          -0.26970574935047    2.04638892758186    0.13913959934271
H          -1.41578635197201    0.81899198981214   -0.13998356824766
N           0.35691537617882    0.69223779150385   -2.89853634407226
H           0.71958190688619    1.44503510422795   -2.32473017019173
H           0.65413377826759   -0.17813904394211   -2.47481789444437
H          -0.65214946914920    0.71659702070838   -2.81621021237079
