    26
        -50.44195686  Gyration_radius:  2.44511259859 Dipole_moment: 4.533
 S           0.90925532947890   -1.31673267736063   -1.05156002839478
O           2.23214494306311   -0.97631497886074   -1.52310275397816
O           0.70597371738772   -1.02961259665864    0.34782814540590
O          -0.13336139108074   -0.70199940050585   -1.89477999850005
O           0.74875440924016   -2.87402753247071   -1.23612962501506
H           1.04745945015673   -3.03132606160346   -2.12641780405320
O          -2.51520136700470    0.84912465287188    0.90050220836801
H          -3.09591304597118    1.50508253456615    1.28891756690139
O           1.03591539674645    2.32827328290450    0.38537105926257
H           1.40545268731189    3.15874128869438    0.07979721632733
O           2.97374644175201    0.61943047689126    0.39935522634383
H           2.82448412831335    0.05350327568184   -0.39433069917222
H           1.79953420640718    1.67127801277390    0.38417971718379
H           2.82987961181860    0.03071698722873    1.14509773493978
O          -0.29133919840748    0.60065458570518    2.22835388912917
H           0.21294330655332    1.37662085544548    1.95442795660562
H          -1.76938826542308    0.69067629074903    1.54623194684557
H           0.06848188248300   -0.13345964969744    1.69645843234635
O          -0.93697250712724    1.43250744675974   -1.01732165797152
H          -1.65686759844290    1.19566739394954   -0.32567871493051
H          -0.14862418457384    1.80115700946467   -0.49295973968716
H          -0.60027858419154    0.47819911847685   -1.45080509521500
N          -2.07513039114256   -2.16158852007471   -0.17094478295941
H          -1.15145260413350   -2.27712280195829    0.22763392271237
H          -2.48371021278003   -1.33598816466251    0.25208477294862
H          -1.93578616043560   -1.95346083831082   -1.15220891544645
