    26
        -50.44195697  Gyration_radius:  2.44524979302 Dipole_moment: 4.534
 S           0.99978756579175   -1.29842001640870    0.99041549875352
O           0.84188780778299   -0.90557663383435   -0.38894479978998
O           2.24447210247758   -0.85623687820784    1.57652721821526
O          -0.15400174417262   -0.88849394957977    1.81313840776825
O           1.01583211035916   -2.87438613223798    1.02747694972663
H           1.28207723652975   -3.07985089718421    1.91829939693885
O          -2.54429666110750    0.63967951105394   -0.98736149243212
H          -3.17662708303787    1.25893167163984   -1.35482016625481
O           0.77107248734606    2.45693741156071   -0.11152802672155
H           1.02139977408431    3.29195611524169    0.28809853645678
O           2.89643212799938    0.98809495988492   -0.14574796880984
H           1.60632124918724    1.89387708848488   -0.11678448489208
H           2.77194392676341    0.33651379740536    0.58386975913958
H           2.86540945278980    0.45998518624482   -0.94795844596679
O          -0.23629157274052    0.77175587258818   -2.18178276664201
H          -1.75022439677463    0.62850150470741   -1.59360762348431
H           0.15589488282938    1.57042377602240   -1.80787554362800
H           0.17819361181383    0.03605622236796   -1.69370971481356
O          -1.15572490408015    1.21432170879388    1.07453763642291
H          -0.38914991937137    1.71803122079953    0.63773288514146
H          -1.80276925497820    0.96399371440930    0.31875549319129
H          -0.73220840897317    0.26733979706174    1.44414199022120
N          -1.80944797816833   -2.39015076706806   -0.15746283802726
H          -0.85692143839967   -2.35938550326790   -0.49982976975161
H          -1.75373139324478   -2.26452230289775    0.84590124551316
H          -2.28932959070394   -1.57937647758473   -0.53148136627299
