    26
        -50.44195665  Gyration_radius:  2.44507325904 Dipole_moment: 4.530
 S          -1.89136344658481   -0.07931641701917   -0.28714994890710
O          -0.68894703774820   -0.36240007272501   -1.03289083194839
O          -2.57386040286429   -1.26571669746236    0.17686452987044
O          -1.64068569165407    0.86128030103985    0.82123968010364
O          -2.88293399594610    0.66049625097970   -1.26413380415111
H          -3.70708400910963    0.67351412884008   -0.78724034105321
O           2.20044081729752    1.72811606133430    0.18484025970948
H           3.10654874500880    1.91852790354699    0.43192264339154
O           1.21515694505717   -1.84945052036075    1.32048952679753
H           1.35017813807022   -2.39348451289353    2.09858447861923
O          -0.63913123396427   -2.99487618674263   -0.06715355722269
H           0.48987650755756   -2.30474054771486    0.79002634398499
H          -1.44927959824366   -2.45437742009517    0.08781093521908
H          -0.42981107222578   -2.85458847115180   -0.99444591298723
O           1.98630744253577   -0.53031753597381   -1.08958361723836
H           2.21825282966623    0.94463044016032   -0.43495828782714
H           2.05230530738793   -1.18498714985767   -0.38352885465430
H           1.03165804171355   -0.45681253853529   -1.27542904464915
O           0.58136022802963    0.60514007165428    1.80561216190162
H           0.81676412727579   -0.37003721766299    1.64422774834177
H           1.21401506979478    1.15507797890292    1.21408272787320
H          -0.42970753224049    0.75065717591458    1.39554278909791
N          -0.52383574537039    2.66914009348981   -1.26680757313492
H           0.43344987472556    2.63646926186225   -0.93497723528242
H          -0.72049179304872    1.77707341566668   -1.70382198812159
H          -1.11918250512355    2.72098221480083   -0.44912283773151
