    26
        -50.44195656  Gyration_radius:  2.44530412488 Dipole_moment: 4.530
 S          -0.40878046859021   -1.86765492809522   -0.11369631489888
O           1.04901652574592   -1.71161086997121   -0.27775185538267
O          -0.72714924532483   -2.54201655799087    1.12402214616989
O          -1.10520368704012   -0.61522512502716   -0.28192933529072
O          -0.87265288085063   -2.81886006479430   -1.28203909326623
H          -0.50842628046698   -3.66651769976540   -1.04634962088579
O           1.25915930473208    2.13624720876414   -1.30572658539881
H           1.62947104737815    3.02008221800599   -1.31450566781932
O           0.14263926876427    1.18143079697489    2.28579579847492
H           0.49282841421907    1.28390543516780    3.17263515690389
O           1.86865404923254    0.45110396009436    0.51066206752961
H           1.20796762690033    0.72245035098944    1.23318316243705
H           1.54296029901127   -0.53682699675595    0.14873100905639
H           1.72679449468072    1.10393805702185   -0.26788132322292
O          -1.76934659645157   -0.54947939022805    2.44187441801820
H          -2.44369910273012   -0.28834832439817    1.80906768724198
H          -1.39250741068262   -1.38228154696200    2.07194799507809
H          -0.59911337927905    0.50399022006090    2.36012979495470
O          -1.06777979482037    2.06263095978749   -0.14321745057347
H          -1.24482277241860    1.11985552840982   -0.31933564730326
H          -0.84285568215295    2.10254717722250    0.79448126419841
H           0.31079928479225    2.21311630773693   -1.00087855368168
N           0.40310303303475   -0.51469045136784   -2.93016333184072
H           1.08114587280282   -1.16107899065743   -2.54510988376387
H          -0.45676399800875   -0.66697510674210   -2.41736113235378
H           0.72456209751209    0.42026784252052   -2.70658473438683
