    26
        -50.44195691  Gyration_radius:  2.44543358811 Dipole_moment: 4.527
 S          -0.33095064363416   -1.68223743830728   -0.85385268274703
O           0.95431956395777   -1.16123448095329   -1.35714065390260
O          -0.13686484434187   -2.86951746765743   -0.05322128570082
O          -1.10114819884475   -0.65947588823231   -0.18865223677068
O          -1.14456312857699   -2.12334552358727   -2.12990184483480
H          -0.68315668267844   -2.89641735570375   -2.44001943331109
O           0.58391119799778    2.70443324140251   -0.45348340979679
H           0.88041797263981    3.56593699221162   -0.15647369251072
O           0.91885828215610    0.10205179861716    2.40574572094595
H           1.56596643105518   -0.10780824970288    3.08163515544593
O           1.90226647096081    0.58259747973047    0.06760386538987
H           1.54240001138376    0.37349680732450    0.99423226428015
H           1.51360931188581   -0.20340020531128   -0.59973587245204
H           1.45208341516290    1.45656003563770   -0.22481909036327
O          -0.71115409471135   -1.89991030404867    2.29700402746294
H          -1.58389889754780   -1.54744617592233    2.10343953311156
H          -0.45812183245249   -2.39445144822850    1.48228708109486
H           0.29201612218234   -0.68569443721129    2.37217865334992
O          -1.14354963801711    1.64651680752197    1.18012605336992
H          -1.32735382546936    0.85373901745347    0.64268117639955
H          -0.59065172435855    1.33222788543926    1.90608365041264
H          -0.18747334857712    2.43891764398950    0.12324559327020
N          -0.68396179151798    0.87506091665726   -2.78831759018710
H          -0.34735484680759    1.67172917299869   -2.25964624982430
H           0.11665760394361    0.28321748616418   -2.97423899432766
H          -1.29230286581663    0.34445367969290   -2.17675973775430
