    26
        -50.44195698  Gyration_radius:  2.4453056122 Dipole_moment: 4.529
 S          -0.00893056465640   -1.06827469191434   -1.58938293078225
O           1.18466037957140   -1.83395749226460   -1.86759298354777
O          -0.85355141030997   -1.74121855797459   -0.58432068549248
O           0.25828645118788    0.30426290580106   -1.23359592775581
O          -0.85579489536789   -1.04900912450570   -2.91878789330394
H          -0.86889879935108   -1.96001576332408   -3.19557893945080
O           1.98864433701318   -0.08461986308824    1.63740105558408
H           2.59618273073495   -0.54505173493596    2.21922652832550
O          -1.62912556978716    1.29850657503901    1.87583115091910
H          -1.76778394012459    1.72554994036044    2.72242877629530
O           2.95743742626746   -0.28462592193716   -0.74960018044513
H           2.40254866213136   -0.96616487530037   -1.19681732676739
H           2.75212902999117    0.53320672168908   -1.21045989807094
H           2.37608878257783   -0.17174400061841    0.71169119750816
O          -0.44205177390715   -0.95252558071146    1.69147275477627
H          -0.65520168239954   -1.34065243311675    0.68289243728818
H           0.52521932060310   -0.64242884970040    1.67916699014221
H          -1.01320434873028   -0.10744800498610    1.80084543568738
O           0.51474954893743    2.16363437188905    0.68164612382827
H           0.39349165286261    1.65163863398275   -0.13954678101637
H          -0.89600802275117    1.79143328024348    1.40908623828255
H           1.22379258706460    1.71089161133628    1.15468894324754
N          -2.77638626859218    0.49081711261963   -1.02965382290020
H          -2.79892586924973   -0.51500197152472   -0.91311721387113
H          -2.68461011604738    0.89450495208542   -0.10437774476711
H          -1.92275764769542    0.69829275088589   -1.53354530371487
