    26
        -50.44195685  Gyration_radius:  2.44540700077 Dipole_moment: 4.527
 S           0.59482974753006   -1.80494007343932   -0.23728494058041
O           1.90431993950380   -2.13332836727231    0.27800086229552
O          -0.41564124769849   -1.79688850123334    0.83764869775563
O           0.56912179082953   -0.58515271742653   -1.00738907750631
O           0.18127897397633   -2.97745583472329   -1.20636349111294
H           0.36413051811720   -3.76510954809249   -0.70348362039207
O           1.41248448554246    1.69124707410169    1.33693738452840
H           1.87461308393847    1.98236352627395    2.12518339351253
O          -2.25975250265619    1.65698634148795    0.08228204530664
H          -2.69474689138939    2.48265295605077    0.29997160987439
O           3.05861318183382    0.19017870473043    0.02790422297535
H           2.75092522954640   -0.73250946897322    0.19004594152514
H           2.89710884415060    0.33710264936625   -0.90787448992875
H           2.06312560841141    1.10644329139314    0.83770147869532
O          -0.79613533263670    0.42788703144971    1.77317941722915
H          -1.47617826103793    0.87902461682538    1.15190391968027
H          -0.65172109323501   -0.59286124840087    1.38413973356901
H           0.08449016183724    0.91424892727130    1.63187038252321
O           0.01379582157446    2.03602093177226   -1.12579919741891
H           0.20520866632647    1.09401366169831   -1.29041883027099
H          -1.49017643410713    1.87393511572240   -0.51672647938895
H           0.60322867768061    2.28718941050955   -0.40401453224542
N          -2.38990159806180   -1.24282906961212   -1.32465802396471
H          -2.62518271631869   -0.30648526050470   -1.01563610781091
H          -1.45942489872917   -1.20252377306132   -1.72225037845114
H          -2.31841373488371   -1.81921036589236   -0.49486992036444
