    26
        -50.44195677  Gyration_radius:  2.44529384925 Dipole_moment: 4.526
 S          -0.20019948128825   -1.64409934809994   -0.96137711572634
O           1.24231357856237   -1.40736816517927   -0.76182670182578
O          -0.65155548736450   -2.79061992730339   -0.20647426373329
O          -0.97811098574016   -0.45336974041674   -0.71921237530116
O          -0.36843486937892   -2.00941427369731   -2.48554709179092
H           0.02636763331753   -2.87282028886484   -2.55888781316226
O           1.24361318510313    2.51217350361239   -0.02654680681068
H           1.52274130309365    3.32135805172736    0.40430355540273
O          -0.35038459934011    0.08871001602651    2.55193864921179
H          -0.16245327115514   -0.19312070144047    3.44909062965409
O           1.70736017302803    0.22181409785161    0.99860995713593
H           1.63296827981574    1.14266084342010    0.55301096389188
H           0.91362217236040    0.14543482664461    1.62797292494822
H           1.54288936223624   -0.52124583394857    0.20190135323040
O          -2.08298645853234   -1.57638065222165    1.60198324973313
H          -2.66723536937474   -1.08100524048157    1.02176528772477
H          -1.57177009999006   -2.16264965966295    0.99596614050404
H          -1.02409077805448   -0.56863906743409    2.19335604609017
O          -1.22422356390841    1.90535383835054    0.53290437152031
H          -1.27724566740564    1.12661199097545   -0.05182979068723
H          -1.16132104478928    1.54269670067394    1.42510558770406
H           0.25521670027800    2.43400453795501    0.09657042316657
N           0.92789790413414    0.79773179269998   -2.74089768083603
H           1.11254677791834    1.55291872634426   -2.09038853794472
H           1.58409198171273    0.05626105880189   -2.52770037174866
H           0.00838262478485    0.43300289369370   -2.52379061034440
