    26
        -50.44721164  Gyration_radius:  2.51036144704 Dipole_moment: 3.933
 S          -0.49035518414673   -1.63956217133548   -1.26280009424119
O          -0.31026084507595   -0.25818316671842   -1.68298593340692
O           0.77989995813828   -2.19036029490689   -0.75564120743134
O          -1.58833334934842   -1.82921731613568   -0.35904736557361
O          -0.78664560567910   -2.47487204522907   -2.56978647239285
H           0.05021636322832   -2.40964200408314   -3.01731153318136
O           3.36171719460546    0.28378239989750    0.38996747189257
H           3.85997468197248    0.87633774877768    0.95481619105802
O           0.05964325981086    0.53662903680988    2.10430768446998
H          -0.02163230286216    0.63667295011230    3.05399026954866
O           1.16358291735634    1.49485643261121   -0.31530714462146
H           0.66823635420292    0.89877986520815   -0.91466640917825
H           0.68471813460376    1.46392990228598    0.52406838352725
H           2.62546275918694    0.82265992327702   -0.01473079365185
O           1.64461905466816   -1.32757301978842    1.36479623674683
H           2.44178935930480   -0.77944934103319    1.02400397015914
H           0.96287656675206   -0.63496600054158    1.69243821271822
H           1.23822759065406   -1.77033533773429    0.45527180969966
O          -2.27653902179581    0.19712557586933    1.21338341850959
H          -2.38935460493585    0.88675042895459    0.51375681023872
H          -2.17544005300088   -0.63577060258152    0.70937634712672
H          -0.90406002240038    0.39857855559931    1.75958823535121
N          -2.21677872516764    1.79323341543309   -0.95810511875727
H          -1.60825308679361    1.10007532472857   -1.39336214083908
H          -1.72948667072149    2.68045820171066   -0.98128580598149
H          -3.04382473255778    1.88006155881610   -1.53473504179060
