    26
        -50.44195691  Gyration_radius:  2.44537028082 Dipole_moment: 4.525
 S           0.40305986335138   -1.37046841992892   -1.27552958682362
O          -1.02393176342945   -1.02359810206775   -1.41675329456875
O           1.15616532556501   -0.97395518100448   -2.44337490800308
O           0.95610426828512   -0.87422843687157   -0.03876237723728
O           0.45808196188803   -2.94459884157178   -1.21305107565614
H           0.23638042108362   -3.21706215154472   -2.09810724432414
O           0.62595563087107    2.45786152153376   -0.45952075429345
H           0.60501761074704    3.26011789277235   -0.98447756098228
O          -1.70557893227773    0.71437149024306    2.10657757471253
H          -2.08476252160347    1.35964697807031    2.70504492913031
O           2.52580523404697    0.99448146317978   -1.42202944642187
H           2.92889505631525    0.52845599119677   -0.68466045054279
H           2.07111686520169    0.28986633623561   -1.94078885237987
H           1.36782907162087    1.89664214953629   -0.84570369970672
O          -1.58717216028629    1.12948066590225   -0.40844195006928
H          -1.74776410292557    0.93786289386306    0.58631689938729
H          -0.72511080400645    1.66432826478099   -0.45944016927152
H          -1.37596154018533    0.15646046118324   -0.88021412164326
O           0.88197736777374    0.93466100330725    1.93979303912102
H          -0.71353999418040    0.74854959614327    2.22004112827862
H           1.01687371101385    0.16375022652295    1.35785416140599
H           0.99756532674123    1.70239608876066    1.36647687672580
N          -1.38371204222512   -2.36918123363366    1.21752647743684
H          -1.63660588957322   -1.53179870968337    1.72970195427254
H          -1.85448804333993   -2.32222351655234    0.32201972970727
H          -0.39219992047852   -2.31181844039976    1.01950270171145
