    26
        -50.44195654  Gyration_radius:  2.44527974211 Dipole_moment: 4.531
 S           1.08511538477835    0.79233665742738   -1.36490517022206
O           1.07218735833147    1.70698522808853   -0.20752026513630
O           2.39746106040881    0.22247119350563   -1.56730533207035
O           0.03615913620540   -0.19483477393036   -1.28075813114618
O           0.78006821896973    1.68975076594236   -2.62452639031808
H           1.56460640783570    2.22018778332697   -2.72378846742105
O           0.93394720945026   -1.87124031544725    1.50577484901933
H           1.57349998999755   -2.22801884656444    2.12488509671533
O          -2.18886867009345    0.42450162326143    1.69783141619045
H          -2.72276390462278    0.19517792013523    2.45989466497987
O           1.91062802251451   -2.23772930720868   -0.85804462167518
H           1.17381983018475   -2.42025483280345   -1.44728181121149
H           2.23914559135904   -1.35177536988121   -1.14014248494822
H           1.32689732913125   -2.01838971035978    0.59000599041698
O          -1.61648008145526   -1.65616175906225    0.24371933052697
H          -2.15091057481390   -0.38032906531119    1.10703774283715
H          -1.15207685851137   -1.16840262035851   -0.46172071227347
H          -0.91709249925297   -2.08822707913311    0.74931028071675
O           0.35013776586661    0.61842522791327    1.85758915464561
H          -0.67542318644959    0.64536151195575    1.84368029938017
H           0.61079038592561   -0.35555734874111    1.73274647300873
H           0.68548477960477    1.14681961086743    0.95146510448160
N          -1.76892700912902    2.23824304404627   -0.93495465611269
H          -1.41499616697822    1.48580546050062   -1.51297363434441
H          -2.17197364778771    1.81614064233708   -0.10619988941435
H          -0.96043583147245    2.76871436949268   -0.63381882661630
