    26
        -50.44721131  Gyration_radius:  2.51034591534 Dipole_moment: 3.939
 S           0.79708630863235    1.95037826989155    0.30037526970151
O           1.96394194167429    1.20867464266260    0.81297062332821
O           0.35912782934828    1.38943315330246   -0.96868638433885
O          -0.25542270592128    2.08370956728954    1.26610476757521
O           1.35609952862730    3.39394412079564   -0.01183617368556
H           2.13074158597000    3.18001293215941   -0.52077527601418
O          -0.82478809201597   -1.66568468197350    1.12521559447859
H          -1.21254851106898   -2.28162208276909    1.74874353902668
O           2.47238190793118   -2.27044838108044   -0.50747635443584
H           2.41259352604047   -3.22313069945528   -0.59427159390753
O           0.27156249400012   -1.23366471760338   -1.44446314194302
H           0.34426394170971   -0.25881708718287   -1.37930253342024
H           1.71563767977371   -1.88542745473821   -1.03190441328746
H          -0.33963568423960   -1.48909831672792   -0.74012437814936
O           1.62266054620451   -1.08835555026999    1.58431212105133
H           2.08763817832378   -1.60303333483870    0.82858184808125
H           1.77742227691582   -0.04450206587078    1.30866016628727
H           0.62287359502950   -1.28491028853008    1.46813423692059
O          -2.29326886815796    0.38620378044195    1.13155902846750
H          -2.53686904151112    0.53210140163697    0.18431040845663
H          -1.43836726555525   -0.83503366382662    1.14260008273706
H          -1.64342000334089    1.09345334036648    1.31974026921260
N          -2.43982333996335    0.89592960480034   -1.51138032033389
H          -1.46948184817463    1.20562247019209   -1.45849966472860
H          -2.99347438800989    1.67688639786252   -1.83958469393404
H          -2.48693159222140    0.16737864346456   -2.21300300714507
