    26
        -50.44195695  Gyration_radius:  2.44530174728 Dipole_moment: 4.529
 S          -0.53267909277995   -0.32147187524238   -1.81126143978915
O           0.47253894101580   -0.12635252029710   -2.83097790422646
O          -0.37181401084159   -1.62794820657122   -1.14526683257417
O          -0.60430880687641    0.76086379225306   -0.85981205638857
O          -1.92313615172359   -0.38481861079248   -2.55105734602443
H          -1.77471060716271   -0.99529590225345   -3.26660185914842
O           2.44545971537916    0.57700504772608    0.57573485944442
H           3.38789207880457    0.39975270592405    0.57243279240801
O          -0.61774438885110   -0.53803984736319    2.68080398532673
H          -0.39338098714582   -0.55665486376048    3.61226841159691
O           1.90098500167875    1.72235187231713   -1.67553926370812
H           1.20579957593096    2.36427792248963   -1.50811683465242
H           2.24670807623928    1.02072412130494   -0.30641640167799
H           1.46703893095622    1.02512357605671   -2.22138585074793
O           0.94620364755634   -1.49826958730221    0.90806513135885
H           0.35219539261233   -1.60266017296135   -0.01383943482594
H           1.56017132007199   -0.70210004959551    0.76325936645482
H           0.28737979291322   -1.22266628406291    1.64446172767321
O           0.02585423990799    1.72198026025102    1.56307805396667
H          -0.49846492119651    0.40178034404726    2.36349035126786
H           0.98077501588286    1.64220348019285    1.44794008624632
H          -0.35091741691252    1.51899785989574    0.68670215060914
N          -2.83604507223366   -0.91116952095186    0.36833767544249
H          -2.54744226879442   -0.10638483781536   -0.17447260148710
H          -2.44280578457144   -1.72113216655283   -0.09541843391128
H          -2.38555222987059   -0.84009652694258    1.27359168733899
