    26
        -50.44195688  Gyration_radius:  2.44534787093 Dipole_moment: 4.528
 S           0.25467216215356   -0.90687811785634   -1.66757912877278
O           1.44060645681250   -0.06417555555076   -1.42267609668611
O           0.58815003135582   -2.31136692034771   -1.60179763771805
O          -0.85097151450399   -0.53780333067568   -0.81726456443045
O          -0.18123827366339   -0.61303391580372   -3.15367501574781
H           0.50572732391937   -1.01373087510872   -3.67734311376562
O          -0.03097487168921    2.51432106393112    1.23916867396621
H          -0.01504018451125    3.07259009025529    2.01789200261277
O           0.41611327166134   -1.20877340608094    2.23799992824912
H           0.96256798082682   -1.70239665110788    2.85229128317205
O           1.65466962926169    0.62685401565740    0.91109953392199
H           1.06264367635629    1.45852154739103    1.01089696151882
H           1.19666268011611   -0.11278023326275    1.43569954405670
H           1.59947269579043    0.33384058028705   -0.14956266036566
O          -0.62233223006394   -2.93560424158873    0.62056454055876
H           0.01978669493101   -1.89216864036268    1.61309876986744
H          -1.50532984644091   -2.62650158504413    0.40113843004493
H          -0.11231037472056   -2.84238079204105   -0.21817998928501
O          -1.70836160275761    0.53999869208306    1.48396603838926
H          -1.59051705447376    0.18752830817403    0.58229577496195
H          -1.23499115688151   -0.07661990806045    2.05597200811525
H          -0.80366490617841    1.88844288941257    1.33634741185716
N          -0.36361085875031    2.24580349207620   -1.95814313953762
H           0.57877990633804    1.95287474927466   -2.18617725307664
H          -0.92294536450022    1.40210388126056   -1.92907956555729
H          -0.33756424038359    2.62133485307582   -1.01695273634314
