    26
        -50.44195685  Gyration_radius:  2.44537877198 Dipole_moment: 4.527
 S          -0.06806945661171   -1.64762702694820    0.97406059972922
O           1.08255370317839   -0.87107151889515    1.47371251142992
O          -1.09614533273453   -1.76720104143218    1.98245583152217
O          -0.55397019150501   -1.13748329444850   -0.28502018222609
O           0.47858433471391   -3.10211277025817    0.70850116370878
H           0.63839304013521   -3.44952498447869    1.58055480942365
O           1.63959027276727    1.65038341050685   -1.56449098008769
H           1.84370636111081    2.49021375928815   -1.97845004822186
O          -1.56384591732104    1.95734108903134    0.60467777252556
H          -1.93004164098255    2.59931300501719    1.21574938651594
O           0.96049538823671    1.49841333830450    0.89060306775903
H           1.34325809426204    1.57199792589114   -0.05816259599932
H          -0.03452833083852    1.68710684622815    0.81120996800721
H           1.05245706866019    0.43902844839697    1.17955053679494
O          -2.91224113926792   -0.22294636840911    0.92856171550347
H          -2.98522768716972   -0.64440810920842    0.06809015933077
H          -2.31992873673353   -0.81787233637091    1.44581520737088
H          -2.09590105991402    1.11320984817552    0.74223154306079
O          -0.83253928740035    0.93964022720094   -1.95846247676540
H          -1.31914478681272    1.49408807913733   -1.33613996177438
H           0.73988616900822    1.36643401785208   -1.89323677893333
H          -0.76475850642688    0.07060819931419   -1.52103885384792
N           2.34727665811722   -1.46989206569981   -1.15685418009620
H           1.38775690752705   -1.79284204772060   -1.18137108455203
H           2.35092592202719   -0.51360370895251   -1.49304400135955
H           2.61145815395027   -1.44119290148540   -0.17950310882363
