    26
        -50.44195661  Gyration_radius:  2.44524551403 Dipole_moment: 4.532
 S           1.18412966753677    1.11681748766801    1.00942441528168
O           0.56061602236664    1.94743786099768   -0.03820487077954
O           0.74144938838726    1.51510398183602    2.32602419603522
O           1.01612667934200   -0.29223311889905    0.74800895275536
O           2.72887764829914    1.42290114008937    0.93745247409529
H           2.80098231496830    2.31613693579995    1.25940558587074
O          -0.65030254814891   -0.87830624535088   -2.58058533759870
H          -1.24557704260749   -1.29535459930223   -3.20514809979019
O          -2.33984381879074   -0.59490209378539    0.90104691822088
H          -3.20864135466135   -0.36456872436495    1.23535958173619
O          -0.73414992958440   -0.54801346064475    2.92469063242521
H          -0.22473734180883    0.29095993233840    2.82926319123383
H          -1.72400523469085   -0.57109999527081    1.69788132869873
H          -0.08305852513212   -1.24175359692857    2.78985862049876
O          -0.41141200172712   -2.25775545102371   -0.38719766180575
H           0.26061561665018   -1.68424983325384    0.02597344389505
H          -1.23044286091759   -2.06007881813841    0.08350955269003
H          -0.47959175502889   -1.53476601825366   -1.84697365381745
O          -1.45571791635850    0.93697709983168   -0.97891987678350
H          -1.82213297615217    0.36025778457261   -0.22697822396715
H          -0.55599074273350    1.43027805433766   -0.57985036104928
H          -1.13099337887037    0.28925859264154   -1.70542226179239
N           2.24155044943089    0.40459699068303   -1.95548015247126
H           1.47237414552821   -0.06456225806297   -2.41995887922630
H           1.95685210102864    1.36525426283639   -1.80782569343079
H           2.33302340366655   -0.00833591034988   -1.03535382095507
