    26
        -50.44195692  Gyration_radius:  2.44527718463 Dipole_moment: 4.530
 S          -0.38252365927892   -1.78071211881464   -0.59192459653871
O           0.87656820254354   -1.35029934974656   -1.22895788017241
O          -0.15174318026860   -2.84656597572512    0.35621549370925
O          -1.11215881612345   -0.66617011557684   -0.03771416923410
O          -1.26439024847685   -2.38630847465749   -1.74969688477014
H          -0.82268298100749   -3.19994855943485   -1.97237852004475
O           0.57088610767874    2.60725178706061   -0.85715876758008
H           0.88662743976458    3.49818093205573   -0.69936769669884
O           1.04489628844328    0.42576808271213    2.31711307393388
H           1.72562945301293    0.30430145704196    2.98155569750981
O           1.90583854090592    0.56399870225344   -0.11257272207657
H           1.59431505723345    0.49041811720131    0.85159166077039
H           1.47940111769373   -0.30254250769081   -0.64242465052838
H           1.44435868303777    1.39368238189498   -0.50095958711245
O          -0.59824031998353   -1.55174260637289    2.57371065694773
H          -0.39038628669452   -2.15818320270039    1.82446047680924
H           0.41336283730426   -0.35131390469532    2.42634646055086
H          -1.47821248672452   -1.21932572939883    2.37744917485626
O          -1.07260978952272    1.80826648108159    0.99553819567472
H          -1.28778034467769    0.95040329735083    0.58453002147428
H          -0.48368085129770    1.59204521742676    1.72893740292378
H          -0.17021957585009    2.43413105786763   -0.20991962011159
N          -0.82548645167975    0.48497662647673   -2.84448778861062
H          -0.45888841663010    1.34372733995564   -2.44994528541243
H          -0.03808559237295   -0.13644916054360   -2.98465239637627
H          -1.40479472704132    0.05241024499517   -2.13528776988835
