    26
        -50.44721166  Gyration_radius:  2.51035628642 Dipole_moment: 3.932
 S          -0.25960124293164   -2.09484098922914   -0.25961435231014
O           0.22131460670211   -1.16015743934215   -1.26573207029635
O           0.69692527273518   -2.17985524842261    0.85929721589566
O          -1.60570849246346   -1.84120296698537    0.16696135378810
O          -0.22077882125704   -3.52904846270062   -0.91935988399259
H           0.71698900015938   -3.65630982393992   -1.01568239812165
O          -0.55722093653834    1.60373454632731    1.35551756299982
H          -0.92823373998990    2.20088648150512    2.00688334576165
O           3.06124464796498    0.70471319952168    1.29084410371828
H           3.42071825489956    1.54565449117703    1.57729078028000
O           1.38361393601367    1.16101781674723   -0.65168321528764
H           2.57092657076751    0.87628303464569    0.43855874462144
H           1.03734656491733    0.29865737578262   -0.96208265193902
H           0.65883246726444    1.55851565781914   -0.15018524791825
O           0.93022116897483   -0.23480825610012    2.32585336964462
H           0.78755559449874   -1.13238536413074    1.72383932473692
H           1.85785478791464    0.09590250027713    2.03917775141370
H           0.27337796013558    0.47018749135556    1.97461775072543
O          -2.50199827188135    0.65614551027082    0.05679502889620
H          -1.36661750346696    1.22697206598955    0.83634211694396
H          -2.29316695716775    0.83937019484114   -0.89221072237864
H          -2.35014432626609   -0.30624236932307    0.15010593201130
N          -1.53910052113936    0.80222742432925   -2.45675773653991
H          -0.91611322151852    0.03226809536769   -2.21328544943693
H          -0.96156495431565    1.56587150730378   -2.78610000309579
H          -2.11667182399936    0.49644351692924   -3.22939064013515
