    26
        -50.44721160  Gyration_radius:  2.51034608458 Dipole_moment: 3.934
 S           1.42506507535145    0.16994543117775   -1.56947415164147
O           1.76341747183164    1.43743757859677   -0.89634717929087
O           1.34254226421233   -0.91127744696672   -0.59923363976625
O           0.27334068525038    0.27206060084053   -2.41881993899120
O           2.67673010816141   -0.13619904925130   -2.48239421269399
H           3.38527457274585   -0.02587276969250   -1.85735084175509
O           1.04089503677241    1.64424284129303    2.78300258257495
H           0.57712083268564    1.79835872154656    3.60738969068106
O          -1.90065803505911    0.83781628891814    0.63672253980562
H          -2.75349268413867    1.25987066904955    0.75101171771692
O           0.21755393827982   -0.62649105991204    1.80263703538361
H          -0.66969890276522   -0.36838662384996    1.51800776943564
H           0.71294693598240   -0.79548914668246    0.97440820754318
H           0.85455099192003    0.69960518557714    2.51982495717622
O           0.08132354187843    2.45059135115072    0.56401025721433
H          -0.73896419883133    1.83617112691321    0.52669645577527
H           0.50817798393450    2.27362671624702    1.47972888355386
H           0.81400208013818    2.04814579397119   -0.13570954009206
O          -2.06171647135576   -0.55454189930956   -1.46148746239145
H          -1.78837916270837   -1.46503858698101   -1.18934815293108
H          -1.98647210140203    0.27487553345580   -0.22487841932001
H          -1.29814030990511   -0.22311757018512   -1.97632501335601
N          -0.83514762920391   -2.81485590943197   -0.65327653345538
H          -0.92888270135725   -3.19370875974881    0.28101055984205
H           0.04171961544815   -2.29488369760789   -0.68461649098388
H          -0.75310892786827   -3.59288531911691   -1.29518910003901
