    26
        -50.44721167  Gyration_radius:  2.5103527263 Dipole_moment: 3.932
 S           1.65834822621378   -0.98320162569853   -0.89775195355843
O           0.40872942177250   -0.63579882185417   -1.55727510837049
O           2.38195006814577    0.23712057973139   -0.49610928641902
O           1.50307115015670   -1.92526038753264    0.17309630782280
O           2.58105011146031   -1.64346965924260   -1.99611996460094
H           2.74458029112554   -0.89803451564103   -2.56397382928870
O           0.34985634310464    3.37495046873674   -0.14739115899325
H          -0.19921389112440    4.06009075571262    0.23673317758154
O          -0.78490292827886    0.51481032664050    1.95934539136749
H          -1.02283159778873    0.61705821361248    2.88208548394387
O           1.44065625675230    1.59224972933585    1.31114587797183
H           1.11370088962135    2.40360402271912    0.77554483944298
H           0.58815399807652    1.11101287018930    1.61692439917478
H           1.90784913044470    0.96368123438328    0.55286208248440
O          -0.80855432108926   -1.96232578589868    1.47969261925625
H           0.08640123504084   -2.09882560013920    1.10771443390809
H          -0.79960591600406   -0.50276008222446    1.78343774892185
H          -1.40892979909716   -2.06945434848647    0.70131789900059
O          -1.17540235728841    1.33886501372977   -0.71654510136502
H          -0.61790657900783    0.64999800421245   -1.13435040071416
H          -1.35191840901360    1.01353714825893    0.17666135186976
H          -0.26828385773474    2.68773358659111   -0.52402012646646
N          -2.06099464205702   -1.99444668405744   -0.90710173795976
H          -1.20866508210943   -1.60259933618425   -1.30739082173946
H          -2.82130666692056   -1.36889066187832   -1.14326494547405
H          -2.23583108439905   -2.87964445501495   -1.36526719779528
