    26
        -50.44721134  Gyration_radius:  2.51034769765 Dipole_moment: 3.938
 S           1.09474746955616    0.45855506010156   -1.76656711549979
O           0.84356367726318    1.36318300268915   -0.65500909399851
O           1.94025589200320   -0.66775267008363   -1.32958493335818
O          -0.09529310716405    0.03902933395077   -2.44921896677738
O           1.99410775454271    1.24731259477329   -2.79753105194225
H           2.80132352792972    1.33384665846327   -2.30175505065528
O           2.00116020214569   -1.41151238225978    2.35130711222043
H           1.76680216262812   -1.78252520645231    3.20343542128122
O          -1.37893539474480   -1.48735923044592    0.77929663727323
H          -2.01372182124019   -2.18379805648672    0.95404924019192
O           0.32555675943894    0.51367520998580    1.81978089983139
H          -0.46601408746475   -0.00877418649359    1.63177097044132
H           1.47582508548435   -0.56910447138281    2.24970904234027
H           0.58118439568907    0.90936386449665    0.96072793663577
O          -2.35720221513485   -0.06611921032044   -1.06177973610532
H          -1.79638039833168   -0.91871582298983    0.02486392352793
H          -2.34898337223034    0.85696696593546   -0.70714097337929
H          -1.63397259245955   -0.07204075382500   -1.72120358614925
O           0.97055364364303   -2.31196853411655    0.20144385745508
H           1.39414331530764   -1.62635850923269   -0.53333591792529
H           1.47550413514685   -2.07579200823477    1.06254621882707
H           0.00299263978594   -2.01501327008368    0.36694859764959
N          -1.80519999104327    2.40112473510696   -0.12675213438390
H          -1.84437317682837    2.64128649248170    0.85614328127279
H          -2.09928173019157    3.21276643317188   -0.65486344956067
H          -0.82836278373226    2.21972396125184   -0.35728114921617
