    26
        -50.44721129  Gyration_radius:  2.5103293951 Dipole_moment: 3.939
 S          -1.12947197291611   -0.03284729175616   -1.80361811818899
O          -0.13028497184109    0.95698542031193   -2.24662580176587
O          -0.47143819593909   -1.17259863421067   -1.18318105334886
O          -2.17228467600294    0.53850464581356   -1.00093969853639
O          -1.78005446099909   -0.55973928010278   -3.14263514324219
H          -1.00268618426372   -0.76231802535451   -3.65205854774781
O           3.24138486762737    0.81287439218358   -0.59753116651335
H           3.95122893367580    0.97373407685543    0.02612666247273
O           0.36233963226980    1.26601179428504    1.72814572515028
H           0.37236064037567    1.90355227417784    2.44365704185779
O          -1.97525458014668    0.32044784239185    1.63838996199188
H          -2.21677636808356    0.47934902538746    0.70332425057417
H          -1.85902434134547   -0.66016215910434    1.69132544919987
H          -0.60016689534839    0.89194502372278    1.70756544394365
O           1.61503878933656   -0.92839158707435    0.46053077852422
H           2.73745200212235    0.01955865432156   -0.26190807626048
H           1.20317941324678   -0.37401464304716    1.13724184333876
H           0.90392179408526   -1.11144975065071   -0.18805165564687
O           1.10232051025767    2.19689041509732   -0.53459546569695
H           0.74390021468237    1.87203589683593    0.36968508250006
H           2.02712640745828    1.76323085386057   -0.62896978395289
H           0.51361918940156    1.70243127004167   -1.30817895312741
N          -1.43488930089496   -2.29891309749066    1.30190261147134
H          -1.15297853347375   -2.07094047375133    0.34858593262708
H          -2.19641663008586   -2.96304798538364    1.24595203338719
H          -0.65214528322453   -2.76312867736083    1.74586064699045
