    26
        -50.44721166  Gyration_radius:  2.51034825934 Dipole_moment: 3.932
 S           1.09962322048505   -1.44777872784903   -1.10353940701083
O           0.43100094548767   -0.27823569222706   -1.65336963660080
O           2.20323706078470   -1.03688534872918   -0.21622736161880
O           0.20585543284432   -2.38961375311981   -0.49327273078800
O           1.81526065495349   -2.16949146325002   -2.31215241373516
H           2.48060101526663   -1.52733048995807   -2.53537072812247
O           2.03963343803209    2.43890585288613    1.19400775028343
H           1.83457664807367    3.17005015527343    1.77866070621345
O          -0.90853423705274    0.28507903685769    1.95284150442073
H          -1.29984893479214    0.23625599929515    2.82634136798623
O           1.63436382433727    0.02756862160875    1.91257721124436
H           1.90177552784473   -0.50648038623801    1.00060096619542
H           1.92295448491422    0.99160713252467    1.71400303051385
H           0.61005389004778    0.05700396527414    1.95426077414434
O          -2.05653174704340   -1.47030899263102    0.55014008912656
H          -1.29326902289824   -1.98047355529111    0.21087329104876
H          -1.39007106228656   -0.43902206021835    1.39569567654334
H          -2.39257148421049   -0.98745917054347   -0.24467710525465
O          -0.08908049083831    1.90615367440862   -0.21334101494591
H          -0.63920455813979    1.50165818955173    0.47117420665616
H           1.28635396003173    2.37076563623644    0.54274526343747
H           0.12979866516776    1.17689181691927   -0.82992556975794
N          -2.45500910230211   -0.09763613961272   -1.73534645045195
H          -1.45080794483020   -0.16899192771507   -1.89878615496126
H          -2.69580414362990    0.88557479144819   -1.75724848766585
H          -2.92435603021402   -0.54780716489163   -2.51066475691657
