    26
        -50.44721165  Gyration_radius:  2.51035805942 Dipole_moment: 3.932
 S          -0.44642651390628    2.07099964285269   -0.18645257184314
O          -0.69119373796760    1.97496373169446    1.26440418084959
O           0.81502940754780    1.43208161865076   -0.52955363278101
O          -1.55545318294177    1.61966690552983   -0.97680696199190
O          -0.25751367875418    3.61624971365228   -0.45148801511772
H           0.37734184864749    3.83689085955608    0.22168273897202
O          -0.99351170310403   -1.91025001145639    0.28996007546080
H          -1.57555687023916   -2.66800771032660    0.36441222312545
O           1.13676383593179   -0.73276624718464    3.11524246603995
H           1.34211879768148   -1.58515901473749    3.50215359051663
O          -1.47394869209191   -0.85027346800387   -1.94889460146218
H          -1.20510610806100   -1.49119063754084   -0.62994372667238
H          -1.66533908592444    0.07437741397356   -1.69133289052959
H          -0.59701088396940   -0.79458672901092   -2.40239635072039
O           1.62034626635482   -0.86717134776623    0.55711283535252
H           1.49770371041074   -0.74422553123278    2.18473948141460
H           0.88076954797024   -1.42546171783774    0.28115788678591
H           1.43622953869253    0.01265322934963    0.16734490492590
O          -1.18969242629645   -0.22849080555654    2.20502272879753
H          -0.31615129480987   -0.40948925197806    2.71121873066810
H          -1.03712865976882    0.76844915848069    1.79121712573262
H          -1.18450353934454   -0.88499309936664    1.41711192789901
N           1.03077623162415   -0.34080264499616   -2.80521961606001
H           1.16922725971722    0.08620181561483   -3.71216693131171
H           1.81294436906200   -0.96017171519418   -2.63273401659417
H           1.06928556359594    0.40050582283214   -2.10579158147540
