    26
        -50.44721131  Gyration_radius:  2.51034479465 Dipole_moment: 3.939
 S           1.07820975244681   -1.33314298796737   -1.26083369521197
O          -0.08734710076381   -0.54909573568838   -1.63996882463726
O           2.21164472652135   -0.44516199602108   -0.94271404045203
O           0.81395444525683   -2.30037046338400   -0.23475727590067
O           1.54053780120702   -2.11125462127202   -2.55491996371287
H           1.83670754005459   -1.39087272277745   -3.10100422566772
O           1.37999598884096    3.10162043514864   -0.02900865071954
H           1.15246122477079    3.87163707014257    0.49448180451853
O          -0.23246295105811    0.50099095990555    2.10135587552976
H          -0.26403743677694    0.56382654647463    3.05716566052619
O           2.07569092874460    0.91771217901923    1.08508422811810
H           1.93925408101589    1.84557269980357    0.66946309359963
H           1.17972275098136    0.68668576313548    1.52738507668817
H           2.18050952593153    0.26699633269531    0.21621560623978
O          -1.12877934590918   -1.77947619046669    1.49923028528033
H          -0.40246118645427   -2.13854731742438    0.95016647512359
H          -0.60118120369698   -0.43706231507705    1.87580904141781
H          -1.85543367281341   -1.60788670176749    0.85081367284965
O          -0.78956568146819    1.70337924708079   -0.39583167357301
H          -0.90468937877216    1.34749214024440    0.49578527721008
H           0.52015411740490    2.68227928799695   -0.31317409102728
H          -0.56119274108252    0.93024831248522   -0.95260357037535
N          -2.71470480211146   -1.15102460750721   -0.58794114935829
H          -3.25949130922999   -0.29860533861629   -0.63133310562439
H          -3.24373461024035   -1.87939809564848   -1.05027176636642
H          -1.86376147279715   -0.99654187051257   -1.12859405447758
