    26
        -50.44721129  Gyration_radius:  2.51034406889 Dipole_moment: 3.940
 S           1.41459098006895   -1.46403347469823    0.62074203030345
O           1.67678388146694   -0.04637198274768    0.42440279516129
O           0.46739560143551   -1.66058297869747    1.73368528643896
O           1.02704559288100   -2.15045933437111   -0.57793581805395
O           2.76250958504629   -2.10656831473213    1.13469587387603
H           2.83897014284698   -1.70116975272489    1.99181901562458
O          -1.97589996583863    0.14948589082731   -0.89137292326916
H          -2.81924316625336    0.04955584855484   -1.33555705287995
O          -1.69284948241359    1.27193314296092    2.65322937809279
H          -2.43075811343205    1.88351916599557    2.66589371705307
O          -0.22235480498493   -0.75778903203653   -2.46253212171767
H           0.23216519754261   -1.41255271092067   -1.89452192641603
H          -1.27351686491734   -0.22682315527712   -1.54850108677731
H           0.43811586534320   -0.02843501988073   -2.56109359461002
O          -1.85189277656870   -0.94895480773549    1.41340601834798
H          -1.87291600353409   -0.12370936798590    2.02233080920775
H          -1.91019899353089   -0.58010887948058    0.45827641850260
H          -0.83983425773077   -1.33300277764136    1.54661377459860
O          -0.22420813081014    1.81904835687001    0.57007120384893
H          -0.80562798629801    1.48916007904334   -0.12851796628023
H          -1.05133273203231    1.60881987848574    1.96698160757755
H           0.54324484029997    1.21007391979789    0.57320376902192
N           1.68451365936358    1.13184688735112   -2.21824875846998
H           1.87238577690008    0.75611025321753   -1.28885914450562
H           1.47615091399228    2.11678158553616   -2.10979958062990
H           2.53676126115333    1.05422658028651   -2.75841174404476
