    26
        -50.44991646  Gyration_radius:  2.48982752273 Dipole_moment: 0.419
 S          -0.23896462852090   -0.93350114409139   -1.74311511050171
O          -1.58164076545365   -1.16688739915485   -1.26367081793992
O          -0.07723044388753    0.44669972530023   -2.22657187207835
O           0.80185927003027   -1.28956559838850   -0.80601184728966
O          -0.04628329868789   -1.85495320694282   -3.01242203271637
H          -0.89173047950956   -1.74371416846481   -3.43319316219004
O           1.77036896742420    2.81887427453527   -0.74232732595080
H           2.08923354463611    2.54527567829968   -1.60556510822770
O          -0.86741647057661    1.31066121415830    1.56595080088502
H          -1.38687240745118    1.80226255645425    2.20375436541335
O           1.75592966122166    0.67127963327576    0.74039255315657
H           0.98403163654299    0.81806710739661    1.30382126867978
H           1.51642592638165   -0.07647285075170    0.15562568228964
H           1.93844810234050    2.04688947802075   -0.13131005404588
O          -1.86952529813705   -0.99690860970212    1.37112222636475
H          -1.91010020802003   -1.11577117959628    0.39951465485959
H          -1.15211561214362   -1.61074850227874    1.66418291105139
H          -1.29728213367996    0.37401449913934    1.51030735234927
O          -0.69973925885059    2.32072659009937   -0.76475419065384
H          -0.55732614524532    1.49366163506279   -1.42415094377214
H          -0.84200894183585    1.92846277399169    0.17700154411664
H           0.26805382837275    2.70765909349665   -0.75189167308393
N           0.33196818792020   -2.50794489511268    1.77112452563250
H           1.06614790203008   -2.22415770062124    2.40795732211871
H           0.62608561776085   -2.24639958050312    0.83065130623914
H           0.26968345743219   -3.51750945371071    1.80357763518364
