    26
        -50.44991643  Gyration_radius:  2.4898472104 Dipole_moment: 0.419
 S           0.68998859881385   -1.74247111583638   -0.67305573952584
O           1.95230325327710   -0.98929968383409   -0.60933573033400
O           0.30350004786392   -2.22864926679036    0.63130309508783
O          -0.33665357444668   -0.99404385107182   -1.36154389708374
O           0.99771886866446   -3.01611188178765   -1.55653450691203
H           1.46122206017246   -3.55389563152023   -0.92392287976311
O           2.26537077093777    2.31769407095127   -1.06349761669525
H           2.69279464968072    1.77945575820689   -1.73382050576407
O          -0.20637465536637    1.41188132387748    1.69874658916665
H          -0.30325884205844    1.88388508200314    2.52707600714422
O           2.17623059743365    0.86139692175378    0.99107100760791
H           2.10004984435075   -0.02239122420109    0.39760254695783
H           2.33591314567108    1.56710619997131    0.24074456353238
H           1.23093826256229    1.06173867275301    1.34788012636150
O          -1.50705211821589   -0.74242783407780    1.88318978786099
H          -2.19893330858805   -0.68235745960516    1.17954703586694
H          -0.86332107767886   -1.39469918116563    1.53685657235320
H          -0.74952054754254    0.54043535629872    1.80259638006791
O          -0.26148400255024    1.66668441954418   -1.11280321938695
H           1.28346947610320    2.20515466571185   -1.20744179110796
H          -0.30510018002269    0.71020303088659   -1.31686137984114
H          -0.51014375354218    1.74529563045907   -0.18176759071179
N          -3.01248901757204   -0.58440907008741   -0.35237162066201
H          -3.70230724615951   -1.29400744029781   -0.56402750668359
H          -2.16907750741986   -0.80580197647856   -0.88061099352389
H          -3.36378374437037    0.29963449432196   -0.69901871403500
