    26
        -50.44991643  Gyration_radius:  2.48983878781 Dipole_moment: 0.421
 S          -1.44326126891867    1.26480265999140    0.53308802712400
O          -1.40044380587871    0.42238509084693    1.73854122981781
O          -0.37881720276695    2.24155409590564    0.53819593566498
O          -1.51532034865548    0.46413987693716   -0.66774436353351
O          -2.79808531004085    2.07313686835432    0.62563714514371
H          -2.55691645356042    2.73614754327367    1.26321678294853
O          -0.59490044493002   -2.83236781339290    1.80477784725810
H          -1.50390777852309   -2.64082950910014    2.04708483083754
O           2.10908301900069   -0.65115930492131    0.22658912046184
H           3.05224523892829   -0.76968111080378    0.34782950559666
O           0.68650638941751   -0.72861635583353    2.33613897898140
H           0.25507672090486   -1.67428797601109    2.25840403078761
H           1.31138239014245   -0.65344684828328    1.52066207352183
H          -0.16566626095800   -0.12101510523419    2.12774038399888
O          -0.27726080764116   -1.90462720141340   -0.61378095699134
H          -0.81998305287708   -1.09260747525244   -0.68085145845660
H           0.64111439771355   -1.60277792238080   -0.59706067127521
H          -0.52784502223395   -2.64676041171077    0.82567717001921
O           1.75144289373448    1.57709195056569   -0.90168902828878
H           1.31766325862956    1.35912863047422   -1.76291284275045
H           1.03356083383672    1.96328180996413   -0.35819405631402
H           1.99460232685878    0.26335923045333   -0.23824823355319
N           0.19148181053834    0.82004684201289   -2.97109615212508
H          -0.10462914834760    1.48968946725927   -3.66971353326116
H          -0.56900292435938    0.71662525909462   -2.29996287360005
H           0.31188055999540   -0.07321230080634   -3.43232890202203
