    26
        -50.44991647  Gyration_radius:  2.48987389152 Dipole_moment: 0.420
 S           0.82925769531333   -1.73663259842283   -0.51236467288693
O           1.47140073021533   -1.53698904244895    0.79630754153904
O          -0.51305525901796   -2.24996770193436   -0.36462590119138
O           0.93066194624460   -0.55336229921463   -1.33567550934840
O           1.66820533490081   -2.86687810958136   -1.23072988265196
H           1.33528438705176   -3.63659993253280   -0.78249970885446
O          -1.47476192789309    1.08261876915218    1.25508791888023
H          -2.20459051088814    1.41193094282364    1.78159085004607
O           2.21521291104483    1.43392315568150    2.16136105982423
H           2.97719066146710    0.89348163678246    1.93993800857857
O           0.91279512376755    1.80134035946965   -0.07017222129903
H          -0.00624721188888    1.81245213198187    0.22989963355022
H           1.82400159998475    1.72529479627489    1.28981586816377
H           1.00841822280973    0.98005462174801   -0.59438762984724
O          -2.43092153295371   -0.42024337760486   -0.53216054534337
H          -2.18411551537821    0.01218477061602   -1.38624998018553
H          -1.84061399077078   -1.19997803061975   -0.47436411933239
H          -1.89532213452682    0.47631952135510    0.53348967054972
O           0.32924706031952   -0.20007605036491    2.51231836159664
H          -0.45246774117824    0.27978043539612    2.04358353892495
H           0.74478086082472   -0.87834746468057    1.80072531881778
H           1.09392086169525    0.50713448329393    2.55271563559945
N          -1.29036256951998    0.66264121992258   -2.72670823908910
H          -1.50793320225262    0.31194347860622   -3.65073241778580
H          -0.41636902078431    0.22988366650969   -2.42960168416029
H          -1.12361677863036    1.65809062783052   -2.80656086411896
