    26
        -50.44991641  Gyration_radius:  2.48990314509 Dipole_moment: 0.420
 S          -1.76428478289200    0.91045082220604    0.15823538690725
O          -2.20359200278823   -0.49020435525595    0.25739212822539
O          -1.23783809648576    1.38495938064214    1.41714589391971
O          -0.88508773788077    1.10889358645745   -0.97128207985934
O          -3.07314672848983    1.74839063258595   -0.12837863013647
H          -3.45408839526978    1.77169813258025    0.74259144035561
O           1.64754669206275   -1.09652051942178    1.00310300985504
H           2.32364024567395   -1.47299659747211    1.56831615271844
O          -0.71210714005323   -3.10230963986945   -1.22636572825543
H          -1.59722574392669   -2.91297467058080   -1.54638378850616
O           0.69013944898033   -0.94207728881237   -1.64870438963594
H          -0.13727270332137   -2.35348407569338   -1.55246168129750
H           0.08907563305600   -0.18133896964807   -1.51296978909592
H           1.29034217594058   -0.93753250694468   -0.89072356801968
O           1.41095788195033    1.34239452945034    1.60509147946553
H           0.43818010575627    1.43852672580902    1.67071589055696
H           1.57585926231670   -0.10181133930238    1.26903954726569
H           1.65133029844782    1.83214489734565    0.78064127210749
O          -0.64992068876702   -2.18662004173557    1.12054372618825
H          -0.66327253699625   -2.73398077800887    0.23362658348558
H           0.28208221033076   -1.74890888519539    1.14906289666271
H          -1.34431408167572   -1.41568372471087    0.87042821955225
N           1.66279613076699    2.46401815749891   -0.83789250222688
H           0.72108233661854    2.12856798929384   -1.03809483798663
H           2.27841145827033    2.07663264303946   -1.54222944002264
H           1.66070676836634    3.46976588574070   -0.95044718222085
