    26
        -50.45282149  Gyration_radius:  2.40493706935 Dipole_moment: 1.360
 S           0.45357380817650   -1.66359981133896   -0.88210723609718
O           0.39349781012766   -1.73722466222984   -2.31079843883351
O           1.27240344288788   -0.60507772368470   -0.33292434462451
O          -0.87896615865369   -1.65404704572524   -0.24794663469755
O           1.13330974635550   -3.01077751832370   -0.37453635958945
H           0.83393904170420   -3.64865457888739   -1.01365279714725
O          -1.50991171132290    1.58628823121437    1.38794115529498
H          -2.30808437925663    1.97586202682680    1.74712572787198
O           1.68923105055499   -0.50135617197561    2.27522695838432
H           1.85202798248307   -0.83670883319042    1.37191743744262
O           1.28535484836242    1.82142970545045    1.02767317669232
H           1.32208165594587    1.16439971922662    0.31626666955323
H           0.35023398139004    2.03019737903536    1.14854368742323
H           1.75758394394207    0.47241089186424    2.15600040455244
O          -0.78800108640524   -0.76939820162443    2.07738282076063
H          -1.11047016360077    0.18950960216192    1.91447599441267
H          -0.85389689860159   -1.22248130417356    1.13273245342425
H           0.25857266833857   -0.69871219013156    2.28208596761571
O          -1.96472380194584    0.72721282208783   -0.96555489287823
H          -1.25794916278403    1.02945680218159   -1.59303720757734
H          -1.77778232278497   -0.21810680078359   -0.83595939649445
H          -1.72280828410346    1.32793582898056    0.42423724953377
N           0.16522664183170    1.11703400908081   -2.52812372537853
H           0.99070585765901    1.53052114792500   -2.11243092755429
H           0.08152020851793    1.47951747785447   -3.47009436397224
H           0.33333127069367    0.11436919867808   -2.59444336917900
