    26
        -50.45282152  Gyration_radius:  2.40506192546 Dipole_moment: 1.360
 S          -0.27948460368019   -0.20926178801030   -1.90517359293937
O           0.60505977679569   -0.88050117206852   -0.97798648784850
O          -1.40100363915946   -0.96925266634148   -2.36865753471452
O          -0.65864838037213    1.11490270760656   -1.37531193222765
O           0.62533634109425    0.10776691457421   -3.17623411546666
H          -0.01701786750308    0.19107669323879   -3.87292971727181
O           2.85267765728365    0.29749526759878   -0.23816551522423
H           2.29020331099430   -0.21799950524282   -0.84879439544806
O          -0.01249029750287    1.29249970220323    2.24757217520734
H          -0.27748356375624    1.92799943522766    2.91372500390336
O           1.50526645407839   -1.01800719220634    1.65072007798722
H           0.98056199226367   -0.35381179295335    2.11569376716640
H           1.02655302268418   -1.20942721958219    0.83016164746095
H           2.74862612786993   -0.19008621396180    0.60951002040482
O          -2.04700288867562    0.57769937741026    0.89357441660686
H          -1.77164283951296    0.87671736499659    0.01030274150963
H          -2.08623115323947   -0.41051412100588    0.81260823176228
H          -0.86835349345568    0.98359272827626    1.78614225338097
O           1.11745500919401    2.06688513503038    0.08666265912880
H           0.38274921428920    1.73654728194392   -0.58641296040918
H           0.72866119472905    1.84083099696551    1.00736823300515
H           1.94536517573112    1.40588981237055   -0.05507200563767
N          -1.88460186418482   -2.01178737639044    0.26284451602405
H          -1.76640965114864   -1.79151678222991   -0.72483290087477
H          -2.67785953305069   -2.63568297924243    0.34774394438354
H          -1.06028550162471   -2.52205459816435    0.55494146027248
