    26
        -50.45282150  Gyration_radius:  2.40493491788 Dipole_moment: 1.361
 S          -0.32464880778361   -0.59856912712561   -1.81301392760453
O           0.76771530249886   -0.83921824587109   -0.89570127912404
O          -1.21250761168714   -1.69910633135159   -2.03827429977381
O          -1.02881093030419    0.64568059201940   -1.44702783123074
O           0.37553475134760   -0.27245064586225   -3.20509257105287
H          -0.30600002496552   -0.48170209970627   -3.83490110904300
O           2.63235618604684    1.00788418868642   -0.57986825338006
H           2.20250001847228    0.26392410797772   -1.04529060489151
O          -0.24068103457183    1.60584812772493    2.02139854409672
H          -0.63384147894206    2.25067095104845    2.61086794501008
O           1.82845803981655   -0.27859716477276    1.61394640549879
H           1.37416346168724   -0.72861150766814    0.88577552391639
H           2.72166069967869    0.66224415891569    0.33648391464653
H           1.16702298020484    0.28955257342331    2.02912417260694
O          -2.06800109622968    0.14911189502027    1.01020753054579
H          -1.94260762384382    0.35593128914112    0.06847115975898
H          -1.83129588007457   -0.81201943040710    1.08013123683555
H          -1.00043641513990    1.00373185237057    1.70360269647607
O           0.49149096145223    2.27489594016286   -0.33698434623331
H          -0.15955317939817    1.64944825501170   -0.87271817297878
H           0.23885274612663    2.11319327510891    0.64284219089238
H           1.46193507165628    1.84639745505228   -0.46673204891262
N          -1.21944977517288   -2.36956511200871    0.75378157767116
H          -1.79653612142451   -3.16032446401410    1.01334967411029
H          -0.26798170108804   -2.58091544556561    1.02806675809068
H          -1.22933853843302   -2.29743509727837   -0.26244488583167
