    26
        -50.44772979  Gyration_radius:  2.51297814362 Dipole_moment: 2.775
 S           0.72249462842257   -1.28107597134273   -1.51732390454833
O           2.07066201772888   -0.83534834525460   -1.12424560076916
O           0.32139666974131   -2.46686342389453   -0.79835316182787
O          -0.23943313265102   -0.20368353363951   -1.46009436407299
O           0.85568053266442   -1.68907103345645   -3.03914336508992
H           1.43379503492777   -2.44130351071697   -2.97078285843769
O           1.81328408315574    2.88594265444922    0.09277578545444
H           1.86726791245072    3.62096250066457    0.70543359020296
O           0.06385374397888    0.23989045764619    2.14815526604804
H           0.14308550209083    0.10041569124460    3.09309922092533
O           2.27965084364545    0.51541435780077    0.90522682485619
H           2.22614105269338    1.48181550408482    0.56480931502494
H           1.41172257351264    0.35800178190896    1.42770568690092
H           2.22196873436675   -0.10503930885428    0.01015281462073
O          -1.19149457966056   -1.76336510531768    1.26070618243152
H          -1.96258540003749   -1.39011882173106    0.77083666743594
H          -0.62742355625261   -2.15244551799646    0.55937276503643
H          -0.44756336650438   -0.58222518757204    1.79153219421706
O          -0.63173589156902    1.98225393500213    0.04372042005432
H          -0.55419376928166    1.27482191803597   -0.62495531402028
H          -0.66582674459325    1.51433922742567    0.88962688025266
H           0.84384102787493    2.68528789289734   -0.03560531407615
N          -2.92634462634197   -0.56444390463237   -0.43698142119963
H          -2.10239513040929   -0.43059238846428   -1.02166769219562
H          -3.32777631784641    0.34899925379280   -0.26478947611693
H          -3.59807182215162   -1.10256911217317   -0.96921115116731
