    26
        -50.45282151  Gyration_radius:  2.40497398062 Dipole_moment: 1.360
 S           0.41882804202110   -1.86334467577773   -0.32051859787957
O          -0.61169899531597   -2.84693619408464   -0.17625401835313
O           0.13160323431096   -0.76740152343968   -1.22003306165812
O           0.90580028917765   -1.34365408888827    0.97199637996009
O           1.67753929842254   -2.59809405891839   -0.96115773338152
H           1.61606112073332   -3.47366116564058   -0.59436334286739
O           2.03019037246367    0.98204039812839   -1.78794565597906
H           1.56578719385367    0.12750182547014   -1.88289745590541
O           0.02473761747458    2.21381068815997    1.34887058429920
H           0.04902893999359    2.80112436750437    2.10538295987875
O           2.08177338630370    0.83464170801736    0.70658307221087
H           1.66579138903498   -0.11869221193947    0.84801668757904
H           2.17933560292024    0.94393353403660   -0.35222503362537
H           1.33367284170052    1.47503207673119    0.98987925398917
O          -1.18548097020270    0.06345422356110    1.97755447452103
H          -0.53172195900698    1.40566928145059    1.62815524718394
H          -1.86503166571863   -0.17096842852924    1.29351609363685
H          -0.47017661978574   -0.57845608211196    1.83044456741682
O          -0.42948126921407    1.94908450986542   -1.42994337513518
H          -0.53718344377026    0.98665901624959   -1.39411917818333
H          -0.46561860792980    2.25471537467002   -0.51454657463800
H           1.30154317545758    1.63338294615619   -1.89742840417727
N          -2.64419535899056   -0.82111633147567   -0.07656922472798
H          -3.59233310456106   -1.15666675960890    0.04233227500586
H          -2.03900133326897   -1.63269384169351   -0.19109965670732
H          -2.60976916601075   -0.29936463771688   -0.94363028236995
