    26
        -50.45282150  Gyration_radius:  2.40494059788 Dipole_moment: 1.360
 S           0.34120420447071   -0.55558115755469   -1.82364581644985
O           1.18141286409706   -0.53128892001024   -0.64631197847260
O          -0.10036291681899   -1.84718151212390   -2.25601813649652
O          -0.76270033705686    0.41309608970900   -1.67848565417092
O           1.25089148846346    0.03929692269557   -2.98694989483437
H           0.84579045512414   -0.31728245221645   -3.77031422354303
O           2.28416585133304    1.74647605243501    0.11788898901838
H           2.22321484357429    0.94056962835356   -0.43139160144663
O          -1.20739544873103    1.34609357326863    1.85772522700438
H          -1.90829450647537    1.81614460451287    2.31119067240065
O           1.35082476416511    0.15546806138477    2.04409784370334
H           2.23043765268799    1.38581954198597    1.03126967392598
H           0.46954611038270    0.48633788473594    2.25986072255974
H           1.24998944548807   -0.36064890001564    1.23010068312837
O          -2.21036243999757   -0.50497130175476    0.42548954507843
H          -1.91217540433811   -0.21474542805000   -0.45324574350342
H          -1.73183962651652   -1.36183109548424    0.57219918823005
H          -1.65182591373299    0.57364404297967    1.36108229973202
O          -0.11884336537043    2.33662158712849   -0.23514792385605
H          -0.39996885429023    1.58569145698791   -0.91271474385019
H          -0.55715608409902    2.05103902825255    0.64590524205007
H           0.93334583599024    2.20982099992629   -0.09663768618075
N          -0.63251375024037   -2.65888193461812    0.44658359142279
H          -1.00175434633170   -3.59524121807671    0.55878050085992
H           0.23507080067369   -2.60683252304049    0.96601606721085
H          -0.40070135263655   -2.53163302136941   -0.53732684362936
