    26
        -50.45282151  Gyration_radius:  2.40500658909 Dipole_moment: 1.358
 S          -0.73428388627833   -1.57306223116298   -0.85844925460657
O           0.02712863360260   -2.78565862107195   -0.86749179111255
O          -0.97082295865029   -0.97957228575942    0.43947664801831
O          -0.21262139372969   -0.55677145218946   -1.79275019524203
O          -2.18292291418367   -1.92859751645204   -1.41501286751599
H          -2.00001357380337   -2.61682950494370   -2.04574587701386
O          -2.57639092337235    1.11066076011378    0.64011022373090
H          -2.38198532336847    0.15639890357431    0.55902285108835
O           1.09897377450899    2.34746793343364    0.05670530483578
H           1.63342052220886    3.09290401954583   -0.21993632112437
O           2.17707774760808    0.18293453460392   -0.74081031968729
H           2.22542498694588   -0.47889937630177   -0.00301910366123
H           1.46807011514770   -0.15378495823511   -1.31465746783080
H           1.60886792120429    1.50803368296701   -0.21934999813073
O          -1.02768242456022    1.72559539802626   -1.22268823588357
H          -0.72941757447820    0.77141694261756   -1.54269391094488
H          -1.77030467889754    1.55085796715178   -0.47393926881978
H          -0.20662528187799    2.08823384276685   -0.72841666964079
O          -0.37438906043229    1.13611692530351    2.14453747381896
H           0.27614706985985    1.65702744113645    1.65653801787169
H          -2.02144639622018    1.37627041392925    1.40740305239914
H          -0.37825139014272    0.25957752892418    1.73128215075101
N           1.86093072531645   -1.74333533594834    1.08097601008238
H           1.33671967586122   -1.52359450045267    1.91890094576590
H           2.61762457825075   -2.36223257139224    1.34571670059296
H           1.23677203994093   -2.26115794111169    0.46429190194371
