    26
        -50.45282150  Gyration_radius:  2.40498790584 Dipole_moment: 1.362
 S           0.38857330347821   -1.85253187281522    0.41051317164488
O          -0.07836086047007   -2.87791179620628   -0.47305497442180
O           1.18680633837001   -0.80749397792346   -0.19224381583188
O          -0.68829283830167   -1.26012606447420    1.22749435278322
O           1.35747769716432   -2.55062379816938    1.46342467309523
H           0.96887602796645   -3.41314439280804    1.56338215148710
O          -1.22972909945988    2.26332686729197    0.29731082169674
H          -1.93104925025637    2.87991649020343    0.51135053303580
O           2.33372489636638    1.00790265684459    1.34942251021885
H           2.26683896543836    0.12900016733617    0.92757351852768
O           1.28036748765012    1.86888676377627   -0.94461580718219
H           1.19230631229823    0.90450393294255   -0.98143505450234
H           0.40304035951932    2.20767925763737   -0.72512434271841
H           2.23555258492114    1.61869607491680    0.58493919695030
O          -0.03487519958783    0.95951648997699    2.14621218433791
H           1.00703003353142    1.03235437913269    1.91930062558830
H          -0.51367880196296    1.57421546856417    1.48073666137185
H          -0.31551818903834   -0.00636226657204    1.84558661487268
O          -2.23919389252986    0.08389489458242   -0.54813019443771
H          -1.68056795750934    1.44108972968747   -0.10452817690711
H          -1.79394702613285   -0.20894033304918   -1.38519207358016
H          -1.90039094869893   -0.52844604570368    0.12686754154035
N          -0.73300493107691   -0.94829660419775   -2.49638196720174
H           0.11662961412887   -0.45948450757535   -2.75014143877416
H          -1.13660646424791   -1.32357056503128   -3.34607469284032
H          -0.46200815163010   -1.73405094837910   -1.90719200864234
