    26
        -50.45282144  Gyration_radius:  2.40496636201 Dipole_moment: 1.362
 S           1.89186744178342    0.09737291971841   -0.40451283404574
O           1.17188418559734    0.05699086044612    0.84961724274151
O           2.59150998570421   -1.09775386765990   -0.76828217507142
O           1.01247636974839    0.60073001894663   -1.47749103555649
O           2.98633360350136    1.23717288975374   -0.21043378388060
H           3.64727240623355    1.00238369878215   -0.85302862406270
O           0.04895877549826    2.26241229645085    1.77824469498511
H           0.80121103976039    1.65950084789457    1.61832310264899
O          -2.52456916851768    0.34680394631265   -0.47814232439779
H          -3.33730662869182    0.43584131369738   -0.97750801991559
O          -0.95535136538007   -1.25662270886338   -1.68232207090081
H          -0.58971608319130   -1.93011661005436   -1.05195401192924
H          -1.96546291635648   -0.35790687288593   -0.95942049777467
H          -0.20659554842761   -0.65996065200592   -1.85176213261552
O          -0.72033977628283    2.15684711328458   -0.59753243437574
H          -1.52233603835135    1.52066843678954   -0.55136532707243
H          -0.41925124101438    2.32722942934442    0.41383245148495
H           0.04327516944576    1.57148320610900   -1.01719015870869
O          -1.33092932299319   -0.00222272052445    2.06205117571507
H          -1.95191097967670   -0.03137563598281    1.32301124724506
H          -0.47507801866800   -0.28025367181906    1.70236347083459
H          -0.61634828181961    1.66733749230203    2.19104938658442
N           0.39393144908943   -2.73917962084715    0.08144170054522
H           1.27081505595586   -2.28316699391319   -0.16579142291392
H           0.51925282957757   -3.73682048473793   -0.03998466630007
H           0.23640703743458   -2.56739462069869    1.06678704661693
