    26
        -50.45282149  Gyration_radius:  2.4049191476 Dipole_moment: 1.360
 S           0.34596886007907   -1.74580053173578    0.76340267458178
O          -0.05892694011594   -2.91648612046620    0.04527407048424
O           1.19275973665172   -0.81898900297994    0.04459552310520
O          -0.78582549403086   -1.02567283649246    1.37849297427717
O           1.22978521675196   -2.23630948439867    1.99342023800568
H           0.83104241349491   -3.07058327209744    2.21681150694983
O           2.23036799213564    1.25144235656676    1.31901525274488
H           2.19022312701034    0.31078603063345    1.05727776844227
O          -1.23596587450473    2.26980469173334   -0.20606405602520
H          -1.94806515130771    2.90899350236660   -0.15956175418260
O           1.35857697743921    1.68064378634258   -1.16471406783085
H           0.46910894491626    2.04618284023154   -1.07593106717694
H           2.19377896820998    1.71504567014428    0.45247800512945
H           1.26812583928828    0.72451195245332   -1.03526363395233
O          -0.19162406783246    1.32796667874597    1.93132322736507
H          -0.61533632065334    1.80957552646823    1.13224777808197
H          -0.45409065912304    0.32176670541831    1.78848913283056
H           0.86491134539822    1.36725332108695    1.77390759801154
O          -2.19077219924585   -0.03393194286677   -0.72090020194647
H          -1.65961931812022    1.38526283985470   -0.48688614652577
H          -1.68541578386898   -0.46823086648202   -1.45619667023464
H          -1.90726052271566   -0.51286079698983    0.07633136153572
N          -0.54798995011240   -1.38575921269794   -2.33441740142608
H           0.32096362855209   -0.94306949034106   -2.60670264327887
H          -0.88817248334241   -1.91041452455730   -3.13110228187817
H          -0.32654828518538   -2.05112784810439   -1.59532717288307
