    26
        -50.45282146  Gyration_radius:  2.40494312294 Dipole_moment: 1.356
 S           1.25649969036105    1.23577221062501    0.80331991947752
O           0.86724708040929    1.96772964248845    1.97080364792210
O           1.12896335274564   -0.20312123713670    0.88207677668673
O           0.61795307586835    1.73425432962365   -0.43027960990553
O           2.81214461205414    1.49646553217818    0.58765607195834
H           2.91985864989804    2.38721546289604    0.90384065067435
O          -1.70067811328415   -0.78493621917907   -1.79319915455184
H          -2.37402333751769   -0.73146779711794   -2.47261286593673
O           2.04754951600280   -1.70203905830361   -1.09174802864636
H           2.13779069602277   -1.16650217291713   -0.27930676144285
O          -2.00945329056984    1.12243423377032   -0.13468857361250
H          -1.91252179142518   -0.05010967809174   -1.11802141078240
H          -1.98017284962736    0.78567821536990    0.79824606122448
H          -1.15944598720334    1.58062262346991   -0.24814380042450
O           0.67827670606141    0.03797809365191   -2.25151816438125
H           1.32260551580786   -0.72388602665868   -1.86853830817153
H          -0.27396509164272   -0.33332109999856   -2.17945421552389
H           0.70525579110285    0.80655060522923   -1.53684566999610
O          -0.27138061195869   -2.43955249059827    0.00093612101642
H           1.33530667641904   -2.33575986352818   -0.85057808503152
H           0.03501059081897   -1.70230343864936    0.55024232508249
H          -0.96222952337074   -2.07738729498480   -0.56847151317100
N          -1.44365123980809    0.30443000747463    2.34336063173219
H          -1.12758949963635   -0.64929586223316    2.46856950275052
H          -2.03077662101780    0.53958336396110    3.13435316086246
H          -0.61857398672162    0.90096792881316    2.38000129203624
