    26
        -50.45282149  Gyration_radius:  2.40492714106 Dipole_moment: 1.360
 S           0.88002591152941   -0.87581411108206   -1.48655871472685
O           0.12199104847181   -1.74618903365270   -2.33388415663981
O           0.36099109078774    0.46456477342170   -1.32306305259146
O           1.17698914315959   -1.46843512653302   -0.16801223700248
O           2.30347503228119   -0.68154561350028   -2.17258043760136
H           2.44856114382922   -1.52278654724412   -2.59238837445267
O           1.78272847070813    2.25901239833163   -0.00171438825429
H           1.54915173128639    1.72911157603839   -0.78888111688379
O          -0.57334410757947    0.37120139741258    2.50114842040381
H          -0.72205976677317    0.16754576482617    3.42540529247765
O           1.78297204832148    0.26828788411858    1.50966239944196
H           1.88688268693621    1.15886088547738    0.92781170451013
H           0.88980700788451    0.35546137511055    2.00432472706769
H           1.61246112929112   -0.49782490978657    0.81254889837894
O          -1.23231180956972   -1.62952586547086    1.07060610272020
H          -1.80774483724570   -1.34637896599221    0.31337273977586
H          -0.37517196158767   -1.82633995813541    0.65595726362708
H          -0.92081903757109   -0.42736934546791    1.96975219266315
O          -0.85111081297035    2.26389285795608    0.41820135534824
H          -0.99377015876836    1.75315276902177    1.22532916426708
H           0.91910662970252    2.65543802484067    0.25162658756188
H          -0.71685317401637    1.61421467461053   -0.28825152011011
N          -2.35218899688956   -0.81521215390531   -1.21243504212141
H          -2.41802077861644    0.18103049391607   -1.38081369333566
H          -3.19090964652654   -1.24529952479512   -1.58293936539117
H          -1.56083795611948   -1.15905370975469   -1.75422476914224
