    26
        -50.45282152  Gyration_radius:  2.40489422244 Dipole_moment: 1.356
 S           0.81538902616228   -1.22642898524677   -1.25711179558168
O           0.82575109718733   -0.89629282463171   -2.65035230289398
O           1.37950414141327   -0.23777768549939   -0.36428210437404
O          -0.51416763404984   -1.64634405280998   -0.77337438176211
O           1.73645196390217   -2.51239885004790   -1.07635133147570
H           1.59865273633319   -2.98336248106630   -1.89131349368161
O          -1.85314786632671    0.81358956531583    1.62047355464376
H          -2.72725366404701    0.92969154780394    1.99504171687217
O           1.66714534946705   -0.81428145170709    2.19950149538630
H           1.92928561300567   -0.83995042806776    1.25850213870607
O           0.84729315297680    1.65316270422698    1.60557271707612
H          -0.11469308429668    1.64228055173924    1.69011320985715
H           1.54019968438601    0.14784578663716    2.35873083445307
H           1.04403529283642    1.24758912169053    0.74772310872917
O          -0.69428629528757   -1.46596225706889    1.70307571653307
H          -0.63050889453323   -1.63262162644916    0.66855158370585
H           0.30744949876283   -1.26547779863466    2.01712134719904
H          -1.19857987725794   -0.57725907256833    1.77946508095924
O          -2.03199997714440    0.59932237169839   -0.91052507905959
H          -1.66228651670284   -0.29217364804369   -1.02813869700646
H          -1.97131364625215    0.80871505786262    0.60718061081212
H          -1.37797866799389    1.19383744973338   -1.36164299454621
N           0.03148731152827    1.80744493895389   -2.09874676339607
H           0.73918528368078    2.22804992548092   -1.50930224825440
H          -0.08767583023483    2.40387701156860   -2.90853702709140
H           0.40206179220977    0.91492512922417   -2.42137492596048
