    26
        -50.44773015  Gyration_radius:  2.51352057291 Dipole_moment: 2.767
 S          -0.33216713611535   -0.24790469142353   -2.07137254681409
O           0.31999836143452   -1.03086881214626   -1.04621647547585
O          -1.76366819454606   -0.14699630834150   -1.91359106933023
O           0.29278662102487    1.07649406391307   -2.23196113890007
O          -0.07328927769233   -0.99060965088016   -3.44288940058689
H          -0.61171210877908   -0.47029081437886   -4.02952848645588
O           3.00814414001977    1.51601674211131    0.55518556584271
H           3.42936506448977    1.89459474623644    1.32832831479403
O          -0.59870679272536    1.26196841266790    1.65012939511035
H          -1.06214737390632    1.86212036220370    2.23638371759313
O           1.55300303161732   -0.52183274973228    1.28005675347020
H           0.80425137545509   -0.06816952155537    1.69140333405212
H           1.21110503872969   -0.82869717715014    0.41820230437775
H           2.61185222622885    0.64432395074647    0.83757787218381
O          -2.37076057047889   -0.24294608509528    0.66452997707860
H          -2.28175124863400   -0.16759449750230   -0.30901767072899
H          -2.07082368310071   -1.16194048153881    0.86345491180156
H          -1.32807739045332    0.65158622224133    1.25016016431115
O           0.73957783663071    2.38655238617169   -0.21434629051407
H           0.52917672051301    1.83789049988425   -1.13334603259118
H           0.15759121153842    1.96707161663467    0.51782429067132
H           1.70610218667911    2.14080382960749    0.02656123691867
N          -1.15225222539141   -2.65287416202331    0.84919322736621
H          -0.57517834596855   -2.30688412233108    0.08367984857367
H          -1.61178736991169   -3.49679318802541    0.53203309362936
H          -0.53063208665948   -2.90502059029152    1.60756511361987
