    26
        -50.44773018  Gyration_radius:  2.51348128214 Dipole_moment: 2.774
 S           0.52937640108621   -1.22656434421689   -1.63683515062974
O           0.73511921660559    0.16423186814644   -1.30108145198888
O           1.24824844607019   -2.14885238195396   -0.79018832309342
O          -0.90180233347877   -1.56569676220925   -1.72004340085035
O           1.08218092444780   -1.42515543634392   -3.10470892138331
H           0.99704162548916   -2.36783078483585   -3.19907190875590
O          -0.80673962449179   -0.13922579148972    2.00122385732535
H          -1.07539298310245   -0.43318331377502    2.87303930031052
O          -2.98554199808848    1.54882099526540   -0.58236662854286
H          -3.58614751432992    2.06107013057941   -0.03885395812598
O          -2.36547866661898   -0.82805025811917    0.09690828699010
H          -1.73480419302251   -1.19264286454324   -0.71435742551450
H          -1.73961094944188   -0.60650448530859    0.87806742199568
H          -2.72678274697401    0.07413371840205   -0.23212804098424
O           1.49854976131795   -1.10067822379809    1.63105000081494
H           2.07010228340948   -0.32696869553557    1.41015392463023
H           0.13434054008957   -0.53654387187887    1.85587699949592
H           1.45122036854483   -1.60986994349973    0.79444467254820
O          -0.53539590670003    1.99986565549363    0.18453501936267
H          -0.03252336196551    1.45640228525842   -0.45235323967381
H          -2.06350934231704    1.87779366654957   -0.38627258042931
H          -0.51113310634782    1.49406564381917    1.00868068550040
N           2.77501145249659    1.03365628041005    0.56238187607136
H           3.74973140618873    0.98067896871974    0.29576708994210
H           2.57871458435926    1.99021947915853    0.82995114398849
H           2.21522568676924    0.82682846570688   -0.26381928900353
