    26
        -50.44773016  Gyration_radius:  2.51357783915 Dipole_moment: 2.769
 S          -0.07804054023790   -1.99721788756439   -0.68202025531775
O          -0.49421581219047   -0.72159314048076   -1.21969698346527
O           1.35336956895694   -2.15257515174454   -0.57588430478132
O          -0.75522062746174   -2.30439287271530    0.58966706429815
O          -0.58496808106043   -3.10236579656351   -1.69281244609595
H          -0.18563190261008   -3.88046599576548   -1.31888197796085
O           0.87925130709671    1.19828519285690    1.56932375838683
H           1.43343663098724    1.54271642372536    2.27136920561170
O          -2.87770389732629    0.81390069925365    1.64883115951992
H          -3.14701101350143    1.55857275005018    2.18872952696977
O          -0.82937244915402   -0.55576531224163    2.29986864507291
H          -1.72263159071536   -0.08173746847603    2.12616289464866
H          -0.79034080761274   -1.36294301083109    1.56810729324426
H          -0.10339869736455    0.11743609703097    2.03349237476482
O           2.46083221127877    0.21440124784654   -0.13539478048832
H           2.23151385357974    0.65631841304667   -0.98754086079128
H           1.53107399317484    0.79683548228767    0.87734480234643
H           2.17880953096005   -0.71573404627015   -0.26493410033657
O          -1.25684010034126    1.64534004860524   -0.21602109008153
H          -1.08426036526562    0.81627743493486   -0.70245199202689
H          -2.41157923468294    1.18793275690962    0.84923171576418
H          -0.45338500652728    1.79584510606456    0.30110117341148
N           1.36856030343823    1.13476024312939   -2.43445894589017
H           1.77868715925099    0.91278175165915   -3.33248467826036
H           0.91743906502045    2.03761729377273   -2.51466707887021
H           0.64162649230396    0.44576975148011   -2.24598011967468
