    26
        -50.44773017  Gyration_radius:  2.51354465029 Dipole_moment: 2.780
 S          -1.77838028229232    0.44221229318213   -1.05098224388292
O          -0.47561281605397   -0.06193979867019   -1.42249015333299
O          -2.55465364347239   -0.47020833417116   -0.24521431861626
O          -1.69517153068233    1.77758546737094   -0.43473839346392
O          -2.58010853768993    0.66207754315367   -2.39601959508951
H          -3.43691713255201    0.89379331868718   -2.05394900772575
O           2.08552920108305    2.70262303651872    0.01219615883895
H           2.89459991643824    2.91666063965641    0.47925065921705
O           0.74183842962924   -0.20119661985436    2.02125814102111
H           0.82922393185750   -0.33295794705583    2.96658309846892
O           2.02188768810540    0.14121402359030   -0.46780361197457
H           1.81851824399969   -0.20026793598348    0.41402066968754
H           1.18334248898786    0.06091095117836   -0.96195404381817
H           2.17632756058512    1.76230172223579   -0.31071284911178
O          -0.91686187664280   -1.93528444459184    1.23569915552769
H          -1.62679821515577   -1.44479157171026    0.76984151311483
H          -0.45510923842135   -2.43023283415540    0.51750343062794
H           0.06212004697224   -0.91114319200500    1.70701703653706
O          -0.02645336024884    2.13249160758898    1.31965724374956
H           0.23808402548954    1.19424470220458    1.63769859878025
H           0.78942401515152    2.49224193612541    0.81188689449875
H          -0.79610718365507    1.99867868488239    0.55974414333589
N           0.29914975622835   -2.82351579485451   -1.01374229947315
H           0.01653882297862   -1.92365601769859   -1.39981758695654
H          -0.11882851522757   -3.54835889485910   -1.58281528705012
H           1.30441822458791   -2.89348252076390   -1.11211736291139
