    26
        -50.44773026  Gyration_radius:  2.51347716565 Dipole_moment: 2.770
 S          -0.69589441852423   -1.81699282801565   -0.82275297811082
O          -2.07505591128309   -1.46953989103796   -0.57513661772365
O           0.10887309663839   -0.72122454138752   -1.31356540157140
O          -0.08050403422954   -2.47029290798498    0.34556087503511
O          -0.69718781417183   -2.92112569065818   -1.95443584430170
H          -1.31700036967474   -3.54477416639379   -1.59160952927386
O          -0.27217961453768    1.26255235957460    1.73351224520183
H          -0.61231001177884    1.70551501368560    2.51244315369685
O           3.09160526156190   -0.42070592734390    1.38482018605697
H           3.64997735819690    0.12295981438721    1.94266525295335
O           1.74122685866850    1.11243282700213   -0.23417123895492
H           2.73154492260349    0.17285990208391    0.66730605844960
H           1.24710097087616    0.45082903927413   -0.75561240790820
H           1.08635165363719    1.48080771687556    0.37500682355171
O          -2.22243456318721    1.07816665927659    0.14017830826763
H          -1.91266346982671    1.49596145787431   -0.69858451175745
H          -2.30403046838355    0.12670446825726   -0.08213168601805
H          -1.07369133860227    1.18911554192178    1.08794369139758
O           0.74353643398518   -1.04437204362554    2.15520329884886
H           1.73156355741699   -0.89837996598981    1.92028589111705
H           0.28951828939454   -0.13603150485085    2.01490070914002
H           0.36282248001738   -1.70722451076402    1.37737401737933
N          -1.04379585041574    1.78721846203017   -2.19109031991623
H          -1.57034924139891    1.81904651232773   -3.05462611857234
H          -0.60266408431255    0.87048880933525   -2.12984940395655
H          -0.30435971266486    2.47600539413442   -2.25363445302688
