    26
        -50.44773025  Gyration_radius:  2.51350232768 Dipole_moment: 2.771
 S          -1.19167194754671    1.74186984058685    0.08462283763169
O          -1.84015306736800    1.43190199341200   -1.16747086496083
O          -0.99932725829477    0.59840704725391    0.94766278887579
O           0.05980761310919    2.49145656903995   -0.12103316744173
O          -2.14289256258202    2.73968270505429    0.85890127041153
H          -2.28957858580178    3.39897077568866    0.18917791251481
O           1.26002176185593   -1.09857119873353   -1.37147741982613
H           1.68152104862362   -1.46621402148089   -2.14980121383377
O           2.98266963874805    0.51389222726322    1.57890810750785
H           3.80079717175289    0.01769905291413    1.63377111905938
O           2.07483242079140    1.22664935515794   -0.69335316590052
H           2.51870421905715    1.05060352768410    0.21483161033381
H           1.74031690002773    0.31375282340692   -1.01860704141953
H           1.18916255472637    1.82015852477659   -0.46495717826821
O           0.97827151359262   -1.14649246270071    1.43363110651773
H           2.23781855660242   -0.13858559884005    1.70613626990472
H           0.22121567633277   -0.52983351018367    1.41431256871289
H           1.06657438848482   -1.45240558256152    0.52027755601899
O          -1.21045252676264   -1.03878440296099   -1.89024705128082
H           0.25197869646115   -1.07545362904018   -1.59054171306382
H          -1.64272387363007   -1.53368813274328   -1.15388700163201
H          -1.49578146510722   -0.11052087315636   -1.75475928701640
N          -2.24342475426499   -1.96647161122444    0.43338428517759
H          -3.24251314800612   -2.06970474076651    0.55622289307014
H          -1.97819487511952   -1.05259398187366    0.79835854392616
H          -1.78697809567899   -2.66572471598087    1.00593623498357
