    26
        -50.44773023  Gyration_radius:  2.51352618433 Dipole_moment: 2.776
 S          -1.75055809592908   -0.95438188090885    0.69805824910362
O          -2.49430405251050   -0.59093960630191   -0.48480991690159
O          -0.39504611461503   -1.38125315599438    0.43396719118312
O          -1.80337361833764    0.10392225333037    1.72153084076437
O          -2.49623375374297   -2.18825761459620    1.34743994289867
H          -3.38513583295981   -1.85299647396770    1.39302167600273
O           1.86499867564711    1.14238045772620    2.62114120240680
H           2.62943308048231    1.71585815650957    2.69354670873789
O           0.64964717189404    1.86359106491191   -0.88239342760689
H           0.69922005323656    2.70189597243733   -1.34424579127278
O          -0.26143776694837    1.99123489973742    1.50165796980411
H           0.54919989563101    1.71104091768858    2.06482972742610
H           0.05849515713650    1.96996208685993    0.52784172004899
H          -0.97786156467532    1.17691440894709    1.61270691020982
O           2.02655129941105   -0.22972320502091    0.41051013625987
H           2.04558627718392    0.51107365217573    1.86912704168498
H           1.22359267401396   -0.78241393385130    0.47040183845778
H           1.80469945247393    0.45220936319732   -0.23861529815588
O          -0.82654894575446    0.38378271539447   -2.29898512785407
H           0.04425603281923    1.26470998355680   -1.46502872640173
H          -0.29104545439319   -0.42670344459075   -2.47292010153553
H          -1.54741968296914    0.07281383761869   -1.71147233337915
N           0.57073577775279   -1.93406300886243   -2.24111125904647
H           0.23901009745463   -1.99184804269045   -1.27920790601008
H           1.58214740807610   -1.97288386726522   -2.21598667504463
H           0.24139181962190   -2.75592552604142   -2.73100456178710
