    26
        -50.44773016  Gyration_radius:  2.51356088253 Dipole_moment: 2.776
 S           0.48904227042465   -1.48284976498639   -1.42338164467769
O          -0.68737160884213   -1.17237287004871   -0.64296517710715
O           0.80498317514307   -0.49699106906713   -2.42970336829405
O           1.65177274679748   -1.78145924521269   -0.56931832564968
O           0.18415901265067   -2.83418989361902   -2.18550270217590
H           0.95621966883157   -2.90402666822232   -2.73671785700502
O           0.76284624419998    1.84952437113957    0.81694103071579
H           1.22142688543549    2.67834974644106    0.96303254993245
O           0.66003539319245   -1.11223299497802    3.15949184546065
H           0.68629824801027   -0.69205153535614    4.02050041830574
O          -1.18673943367392    0.01798851175770    1.70752356348836
H          -0.16414960545697   -0.78465839404422    2.70117350410777
H          -0.75285836921715    0.85424962763919    1.48831739795425
H          -1.13378948276148   -0.50894004537220    0.88693098007516
O           2.14443115475683   -0.25101228602942    1.27521432295525
H           1.65565289225181   -0.66810590244087    2.07516452558025
H           1.96590905331718   -0.93668144448711    0.44612242764963
H           1.63332043321493    0.61079761058160    1.05842765755549
O           0.01667608605680    1.89155899588855   -1.59493468804827
H           0.37773573022050    1.07821075759757   -2.00671378699405
H          -0.95746719333611    1.73559034142162   -1.56718786164316
H           0.46240567157326    1.87256332947268   -0.16996444739070
N          -2.51370893932464    0.96032031613516   -1.35760726890770
H          -3.11151504402307    0.85586935089652   -2.16731988712818
H          -3.10480643816932    1.15715222512212   -0.55950826476498
H          -2.06050857126613    0.06339692976745   -1.18801495398917
