    26
        -50.44773022  Gyration_radius:  2.51340753352 Dipole_moment: 2.775
 S           1.86501262181629    0.98493469534398   -0.11825458616809
O           1.19705713509728    0.18697755237851    0.88504243072474
O           2.24802728367489    0.24667537952336   -1.29840435835817
O           1.09692620322647    2.19513344105006   -0.45806517183154
O           3.19907138875627    1.51902859363364    0.54141254163882
H           3.60837749965422    1.94060811869548   -0.20659147269559
O          -2.34393231153169    2.04147636422634    1.41037315312057
H          -3.29618276475873    1.99325999852127    1.50754341128808
O          -1.67589512838997   -0.55931209704289   -1.24654487135161
H          -2.24774231077177   -0.78774135359830   -1.98102552646070
O          -1.34309557475627   -0.36171086443685    1.54646662972287
H          -1.98172419438312    1.14127304752264    1.64521074558777
H          -1.59758191050137   -0.70964531317348    0.68056685216671
H          -0.38800679528831   -0.17462812714886    1.46516405503511
O           0.51963533970287   -1.72188635421524   -1.69717356939947
H           0.70130384249656   -2.25802618944957   -0.88873710813836
H          -0.78073053736180   -1.03591306010910   -1.43744878653131
H           1.20726546532803   -1.02294961014038   -1.68016971793714
O          -1.29508554029263    1.94482618844908   -0.91036479254300
H          -1.73545544138792    2.11650377288102    0.00034905039624
H          -0.22782696410985    2.08467192883999   -0.73949926119169
H          -1.43370114688084    0.94672021122004   -1.10025286476395
N           1.09224997406961   -2.70511592760317    0.75915118651808
H           0.38430051138960   -3.02896683498447    1.40652156102154
H           1.29466621194575   -1.73314049809493    0.98933762047006
H           1.93306717325621   -3.24305307228870    0.92539282967253
