    26
        -50.44772982  Gyration_radius:  2.51298508238 Dipole_moment: 2.775
 S          -0.73121099049613    1.89477464034878   -0.58377413400146
O          -0.77049081314029    2.37187149096015    0.77810186451549
O           0.58944629103396    2.11242956179989   -1.19955350665517
O          -1.18219135065154    0.53079416779566   -0.74350873934706
O          -1.72378112130082    2.80060918083596   -1.41706437042984
H          -1.40496410468693    3.66756873205979   -1.19020957865693
O           1.92555654444998   -1.35146118322803   -2.46809653951998
H           2.51223087137912   -2.10763249309671   -2.51831144021198
O           1.51867038476197   -0.88382592316771    1.26035508235192
H           2.17669505389896   -1.05405554664072    1.93611518076499
O          -0.04755109752455   -1.89695662871862   -0.85364438747323
H           0.39979740090624   -1.83492329795218    0.00174504513010
H          -0.57124924301223   -1.07515433080599   -0.91676168786409
H           1.10111511726914   -1.65434959462861   -1.99364626858192
O          -0.36191333561411    0.33521646797106    2.42384958935304
H          -0.49454306377217    1.17144679775603    1.92932372223089
H          -1.17289079739393   -0.19200363694346    2.22836133246941
H           0.75466155372567   -0.38412201408546    1.74120514715339
O           2.34743717012157    0.47382752737671   -0.73973796497180
H           2.03699668854375   -0.03121265454302    0.09669729606300
H           2.26813864163561   -0.19617030031199   -1.51271966781890
H           1.59230204482729    1.23385029712674   -0.94360557371759
N          -2.51310151602368   -0.93055483936333    1.37532754218950
H          -3.45518252457274   -0.67750285596581    1.64457799038335
H          -2.51348226543686   -1.91377208847050    1.13357678317827
H          -2.28049552892566   -0.40869147627980    0.53139727308148
