    26
        -50.45683220  Gyration_radius:  2.43356336648 Dipole_moment: 3.401
 S           0.51971843917915    1.28643479030877   -1.21263980686731
O          -0.98593298267214    0.98687346557171   -1.15706065612969
O           1.23656485062530    0.30652086412460   -0.42725290116884
O           0.90784720874133    1.41209239563446   -2.56976975640111
O           0.66732373512121    2.65118183820055   -0.48895719839941
H           0.54002420811138    2.49737923643286    0.48563096446432
O          -0.63652333152127   -1.84089996776950    1.65440231045265
H          -1.10329387224456   -2.62022858574413    1.95784690118540
O           0.32690606179778    2.12813039443297    2.05834886395430
H           0.72627067238790    2.79201924248884    2.62317808906561
O           0.41822594210543   -2.24916923141016   -0.69288674983638
H          -0.06620136047217   -2.11067296331749   -1.53556579216733
H           0.96433327323617   -1.44914944354759   -0.63057884348086
H          -0.27471713220064   -2.06469042926332    0.74800798785683
O           1.51282261551837   -0.16168538502616    2.20187570894400
H           0.83365084335692   -0.85336668259182    2.26327559100172
H           1.71810713836171   -0.11050668740378    1.25271980661365
H           0.83543287663266    1.27112273491006    2.21197452599814
O          -1.76059375267050    0.54261705481534    1.20234003315420
H          -1.23738986907688    1.17429889718099    1.71690882428510
H          -1.33701074271763    0.79592811870909   -0.20852562438915
H          -1.41922411128430   -0.35462865200541    1.42048742230250
N          -0.53069429853710   -1.19226221264526   -3.01684730105902
H           0.08439075418806   -0.38310198223615   -3.01408714583583
H          -1.47187583293700   -0.83273236201553   -2.91005523543806
H          -0.46816133302897   -1.62150442783258   -3.93277001810285
