    26
        -50.44772982  Gyration_radius:  2.51298351822 Dipole_moment: 2.775
 S          -1.69043351555478   -0.60891954355983   -1.11232893885666
O          -2.53597492901692   -0.62478636679604    0.05757697196249
O          -1.64674525781935    0.72562041341510   -1.73505654569074
O          -0.36601398361136   -1.14329793486099   -0.88940711546246
O          -2.37882551826011   -1.53915812593929   -2.18976893876927
H          -3.25433812088318   -1.16798241927086   -2.21058128275821
O           0.57681817370472    1.45467482313392    1.49238519054062
H           0.58635230561277    2.09761717462538    2.20313145866426
O           2.10665040104591    1.84914779451335   -1.94122278356072
H           2.87891187017361    2.38776561866278   -1.76231787536176
O          -0.10629502112324    2.37586674254624   -0.79129769165213
H           0.12146125277797    2.03061838929423    0.14678219068459
H           0.74975162891504    2.25859008934947   -1.34457397413179
H          -0.81994563583393    1.67054547016399   -1.21867426242641
O           2.05508898764501   -0.16169307117675   -0.28259895853933
H           1.77901250036559    0.28462297511174    0.52995483467735
H           1.25588291329902   -0.63284652570188   -0.58737277535017
H           2.21366045958506    1.00520692197027   -1.41886157208589
O          -1.03010078082170   -0.35171727897860    2.22117612491521
H          -1.69778894570065   -0.42963203418414    1.50734865730772
H          -0.51740439419265   -1.19305206679463    2.16496456095235
H          -0.08259441375854    0.72104676095839    1.79503346823930
N           0.35330382245650   -2.57265735078702    1.52633503939357
H           0.10701169257108   -2.30400478388316    0.57458290229955
H          -0.02037131901842   -3.49839131500936    1.69196376218577
H           1.36292583748869   -2.63318433617268    1.57282757246883
