    26
        -50.45683224  Gyration_radius:  2.43361820105 Dipole_moment: 3.398
 S          -0.59941094385484   -0.78715323494730    1.55406744541250
O           0.17609735118800   -1.70277580247222    0.59499408578828
O          -0.87810803885084    0.47203778276480    0.90014850052798
O          -1.71831271073591   -1.49783928577020    2.05538825296118
O           0.40306981257124   -0.49575857759547    2.70227638586224
H           1.09165258931238    0.13351368844897    2.35683298093971
O           2.15681328301862    1.17093233224194    1.68903199707390
H           2.60436085797251    1.68454080430061    2.36369453720169
O           0.74135591808054    1.14092526693072   -2.16311083611787
H           0.89076427249258    1.21344320170896   -3.10636192837888
O          -1.68066462486825    0.31608070480947   -1.66975300833434
H          -0.19575633367843    0.80658532681324   -2.05143705635820
H          -1.93415745240441   -0.63184099397297   -1.63666489989437
H          -1.61056889326380    0.54765570527609   -0.72977265232158
O           0.60249065793456    2.59998200466908    0.20144321973866
H          -0.15757155819505    2.06622248319622    0.48957981612998
H           1.60776389109695    1.81923216441486    1.14605615421684
H           0.74178396784248    2.33899756171426   -0.72373502518101
O           2.08391150705512   -0.48277915275452   -0.51678779679475
H           0.96079055674694   -1.23672840031630    0.11903740034102
H           1.65919422038307    0.10640621839109   -1.18135295490339
H           2.41138012200291    0.08709527109476    0.19422560776328
N          -2.31461592449662   -2.18955872397090   -0.81048987861034
H          -2.32245788803584   -1.95481472369269    0.17843975036083
H          -1.54626192525735   -2.83675003995472   -0.94187311069431
H          -3.17354271405832   -2.68765158132671   -1.01387698673113
