    26
        -50.45683224  Gyration_radius:  2.43349528229 Dipole_moment: 3.399
 S           0.49471687167510    0.74959183568476   -1.60808503484035
O           0.57768951859384    1.18991723047999   -0.23320175730735
O          -0.40661957998140   -0.49120087538073   -1.69601783481207
O           0.04256523611815    1.70716176632076   -2.54987667992616
O           1.90154451080694    0.23222488802837   -2.00976805384189
H           2.25601226716007   -0.31097855560379   -1.25558864097774
O           2.73936738539582   -1.16990209791028    0.04238412458530
H           3.69487994606225   -1.24490612966520    0.06785850701614
O          -0.70099656122842   -0.94481664909967    2.26736834949295
H          -1.30390985975029   -1.31980978276551    2.91016975867673
O           1.78985271012821    0.25798481435911    1.97366679250375
H           1.41651818662411    0.87934450789258    1.32547315851745
H           1.01566018000970   -0.20091230267032    2.33914659265651
H           2.46830710823559   -0.62859140225946    0.84872219836191
O           0.17868634969978   -2.19267535269294    0.07213988517394
H           1.14414749705379   -2.13049616035218    0.11198429442488
H          -0.16597449563056   -1.81605661538676    0.91385199688184
H          -0.19875456017348   -1.20664837221688   -0.98580133536359
O          -1.73521212716546    1.17154597203461    1.15327265887515
H          -2.32188094982325    1.13777845675718    0.36669279261499
H          -1.16814421010294   -0.15227085528200    1.87226221197819
H          -0.88340268626087    1.43381163027843    0.76885655226096
N          -2.69817174197917    1.26118005109323   -1.39271697139836
H          -2.84109771131939    0.33260244489330   -1.77199365623105
H          -1.83882884408734    1.60897973841803   -1.80942724490577
H          -3.45695445006422    1.84714180503482   -1.72137266441159
