    26
        -50.45683224  Gyration_radius:  2.43366604321 Dipole_moment: 3.398
 S          -0.04716289876722   -0.06609255694381   -1.84025013719669
O          -1.19040441722414    0.70852505816543   -1.16752780162645
O           0.71443792569348   -0.77306423137285   -0.83473593801067
O          -0.58636371749996   -0.85102596375802   -2.88978311525395
O           0.87509195093187    1.03794202295831   -2.42219343699364
H           1.35742856880300    1.46619740497603   -1.66495361902942
O           2.09771690415641    2.08600519528916   -0.35171570009406
H           2.92036304145081    2.51549089194582   -0.59266097445267
O           0.09341513010405   -0.00749885178021    2.55394730132626
H          -0.26106053590824   -0.07008464544019    3.44150906387143
O           2.45046350000622   -0.03691357065968    1.07657316183723
H           2.01561738836948   -0.56792219873353    0.38771290211839
H           2.33988726322179    1.29690042682429    0.22720087303349
H           1.81082186921359   -0.02207143968187    1.80740425383352
O          -0.72396155366666   -2.00060021748406    1.08778308831782
H          -1.57229153942922   -1.99854525358867    0.59356122751139
H          -0.07523644708915   -1.80660108998795    0.39233459712860
H          -0.27289306071704   -0.79041366054018    2.04873286540736
O          -0.38397756743260    1.99472065453162    0.84724088592462
H          -0.23361450594525    1.31436931067270    1.54267555554835
H           0.48893971820680    2.30306247309133    0.56349536042448
H          -0.89872689828597    1.24275642661801   -0.33737769399645
N          -2.60305326067467   -1.80922762335293   -0.87463619290786
H          -3.13022071582988   -0.94667094056786   -0.80761358688112
H          -3.24624318540812   -2.54099622813109   -1.15384527070183
H          -1.93897296626748   -1.67824141304849   -1.63287766913754
