    26
        -50.45683226  Gyration_radius:  2.43354226588 Dipole_moment: 3.396
 S          -1.29528313798722   -0.99805015341415   -0.84745184982347
O          -1.51306997847001    0.52256046021317   -0.84846183058856
O          -0.19738371502504   -1.32818684762160    0.03379375629281
O          -2.53276141026811   -1.63387902631458   -0.57770017536946
O          -0.83571190244120   -1.32163979649431   -2.29392741002961
H           0.09915556757153   -0.99839460472377   -2.39900262729197
O           1.79868953988951    1.31475273305959    1.24999044077872
H           2.13851347332367    1.99063919863150    1.83733425246171
O           1.62947331667355   -0.44049367106381   -2.45494740093881
H           2.12848267068099   -0.87660288735884   -3.14781547541921
O           2.46850021038540   -1.03207471328675   -0.08501285048568
H           2.05301637580599   -0.70669619519867   -1.57950966583167
H           2.51180136260433   -0.21310054607944    0.43549030657641
H           1.59578977412321   -1.40509851143153    0.12671191055887
O          -0.13585592762083   -0.01082327882968    2.38569799331089
H          -1.07480333441454    0.27516209641680    2.36388374266097
H          -0.11181610343550   -0.70451923355816    1.70716930502829
H           1.05437498985785    0.86166716429120    1.74314461886934
O           0.66048964216448    1.77267425975830   -1.12577090348068
H          -0.64568502574432    1.06624743537980   -0.95582611347347
H           1.11729760066733    1.68742015623009   -0.25789443878498
H           1.14449725035814    1.21603352506647   -1.75302887962220
N          -2.77139922165766    0.25425251391980    1.75182770174767
H          -3.55043232436867    0.13161781669042    2.38839893953146
H          -2.79054277182857   -0.51743556166717    1.09062624192236
H          -2.94533693083843    1.09396766738765    1.21228041139386
