    26
        -50.45683210  Gyration_radius:  2.43361360187 Dipole_moment: 3.400
 S          -0.64245595415281   -1.66655893914379   -0.45426427800044
O           0.25101733447241   -1.61051594313480    0.79398473389835
O          -0.60098073657789   -0.39185910031370   -1.13558663295435
O          -0.28161074728839   -2.80275311099067   -1.22051402967461
O          -2.07843180008048   -1.83949286740088    0.10832552857825
H          -2.35978023603294   -0.97153037784862    0.50439119394472
O           0.90883963963270    2.32926286371963    0.52886661253311
H           1.57047503199755    2.96994040500330    0.79160467445991
O          -2.71851185890737    0.49834575687860    1.11143828656854
H          -3.66735724280480    0.62280325380013    1.17018114043483
O           1.82758786958809    0.76323953967359   -1.34006347709020
H           2.34016621369770   -0.05392580818624   -1.15693484793198
H           0.94338746691918    0.41624126190391   -1.53957330142161
H           1.33437660795849    1.75755129162671   -0.17441469274983
O          -0.16001675506192    0.48286359144544    2.14026240099472
H          -1.11823834267947    0.59753874894486    2.06127171900013
H           0.11351166276477   -0.76595825363649    1.36626375795512
H           0.25742803235292    1.20825474014589    1.62178319140537
O          -1.60467879594034    2.04651762147752   -0.63037460421711
H          -1.29395293988087    1.26563981627786   -1.11956859361543
H          -2.37846123900116    1.16595778605872    0.43682700109342
H          -0.79885768256663    2.41900023987067   -0.23630915889803
N           2.55376587845738   -1.83347614484176   -0.95608855604491
H           3.27775364399605   -2.32805455928471   -1.46441915002275
H           1.65912330480199   -2.22779047569268   -1.23409796481120
H           2.66590164433122   -2.05124134635288    0.02700905656601
