    26
        -50.45683225  Gyration_radius:  2.43347339675 Dipole_moment: 3.397
 S           0.55591587022488    0.80139892327368   -1.56251436781704
O           0.69470937775472    1.13798037749344   -0.16307393437791
O          -0.46854952299026   -0.33251806250888   -1.71843851697298
O           0.19665318935751    1.86084282671661   -2.43249155165958
O           1.89900867229809    0.17156990048571   -2.01821759335310
H           2.20187622076381   -0.45427242867199   -1.30682559491743
O          -0.77559319198851   -1.01839061253272    2.21037785589067
H          -1.40840953052259   -1.37224065082319    2.83622479957154
O           2.60512106483184   -1.44298688213650   -0.07547523209102
H           3.54809029517398   -1.61633964637865   -0.06920924582712
O          -0.04653774837695   -2.19943043451748   -0.07507312138687
H          -0.32939590512576   -1.11134249869879   -1.06001829103237
H           0.92050593179857   -2.23870467822674   -0.04560082926411
H          -0.34390743383920   -1.84693417431009    0.79466236489193
O          -1.59645512058106    1.26195830547434    1.25367394231494
H          -0.72538989310694    1.46141574019598    0.87471003686042
H          -2.18979013669896    1.34084880498740    0.47534579531585
H          -1.16237759806478   -0.15777252750416    1.87525228561366
O           1.82279650335887   -0.05815627415321    1.95930920144008
H           2.39755362377778   -0.93202700574464    0.76865418044613
H           1.50994831758656    0.63996117830969    1.35898000038893
H           1.00856281755442   -0.45934526831548    2.30518211550786
N          -2.56578155384115    1.61980475289498   -1.26610133813562
H          -1.67875141684138    1.90526931984116   -1.67202571172359
H          -3.26298223918987    2.30104143622534   -1.54357682085976
H          -2.80682059332098    0.73836958862479   -1.70373041882475
