    26
        -50.45683226  Gyration_radius:  2.43360344831 Dipole_moment: 3.395
 S           0.37008114669411   -0.91035912996746   -1.55775455063060
O          -1.02662455925626   -1.14170701164836   -0.96165575535155
O           1.18167303123919   -0.17330728193381   -0.61491019038180
O           0.88797486830106   -2.15406442629070   -1.99750367689437
O           0.11970193133646    0.02074058547203   -2.77366497831161
H          -0.08962773877454    0.92936876579609   -2.42711213759943
O          -0.40947087857556    2.37679061678627   -1.74938882804012
H          -0.23954201452123    3.08968372081153   -2.36757493953170
O          -0.41893233148876    1.24080327419316    2.19406244978852
H          -0.73652004811359    1.34729563223802    3.09135268112559
O          -1.97399543994184    0.97295766594460    0.03560356032657
H          -1.44356908234327   -0.29974729650609   -0.54102924703423
H          -1.47395746968331    1.10785932787481    0.87281519431925
H          -1.67054279094452    1.65180654252756   -0.58458781257529
O           0.98605654389655   -0.94141187715648    1.96258440438778
H           0.09406252032143    0.38110828153629    2.17731775568682
H           0.59343516025364   -1.82130468808264    1.77406405411205
H           1.33053225330760   -0.67485725228343    1.09517803322392
O           1.22347935783430    2.36756472924200    0.25175642185730
H           0.25183677582045    2.48114671374373   -0.99556022585255
H           0.71048942908323    2.21631303578280    1.06257928363699
H           1.52969005595465    1.48171694116695   -0.00728809598344
N           0.12981737747076   -3.20675858471706    0.71620095900627
H           0.40196840727936   -4.15334980272973    0.95503370008943
H           0.54530714123834   -2.98573957642759   -0.18473427569931
H          -0.87332364639072   -3.20254890537222    0.57421618632679
