    26
        -50.45683218  Gyration_radius:  2.43352351641 Dipole_moment: 3.402
 S          -1.02846535049746   -1.28050470696084   -0.83602684242612
O          -0.69727386532265   -1.01093127325389    0.54553504865342
O          -0.12482410078263   -0.44279597942103   -1.75332368464235
O          -0.96169819587148   -2.63507693780056   -1.24704871077520
O          -2.45385622621954   -0.71937228149384   -1.08382828015471
H          -2.51361868371279    0.17220617779188   -0.64666337052060
O           1.44560841379915    1.70680829816398    1.23638664794497
H           2.24462562286145    2.19683419677632    1.43313616529283
O          -2.50167317512113    1.61295199266734    0.11490656104512
H          -3.39252493498701    1.89365723176521    0.33134141587497
O          -1.08299133910506    1.06590488186080    2.20262513853814
H          -2.02446118139950    1.45873190780889    0.98959623792340
H          -0.97581300652752    0.15279035537487    1.88581020485509
H          -0.20467778784751    1.46437832050682    2.08740311908112
O           1.93209595438406   -0.85027388318658    1.12170356665700
H           0.98719117501250   -1.07142957116353    1.14263997207107
H           2.23908006094294   -1.30671342653357    0.30839419066563
H           1.71053095568418    0.74216847376439    1.19261837143033
O          -0.00215158547869    1.96070142493399   -0.99704962799245
H          -0.90681293737036    2.13241776287086   -0.69766884656633
H           0.56648956033055    1.94902291343730   -0.19351474920288
H          -0.04739676910954    0.54424682139805   -1.47179906613960
N           2.02731861188111   -2.30108741153224   -1.18125308900603
H           2.10221571078488   -1.70591847065673   -1.99773202796610
H           1.05969877512378   -2.60977290361934   -1.14243996501333
H           2.60338429855839   -3.11894392349615   -1.34374837962613
