    26
        -50.45683213  Gyration_radius:  2.43364868927 Dipole_moment: 3.400
 S           0.75047846714692    0.60468162621054    1.57100141918270
O           0.76422981483949   -0.66618566517886    0.88118501882730
O          -0.30858564434822    1.52032622110445    0.93878092451800
O           0.53436525336788    0.55928902659926    2.97086273894681
O           2.09943562486126    1.30779436786462    1.26409882428563
H           2.29635421054187    1.18598533759396    0.29667046844193
O          -1.04453461299515   -0.93443118134549   -2.13777067111594
H          -1.75516506442412   -1.13588908484503   -2.74741543023064
O           2.52203551847926    0.91510265088462   -1.29446335348051
H           3.44959256574743    0.98821901016058   -1.52591498029584
O          -0.15304237094254    1.52358417860328   -1.57913559922331
H           0.80280628787907    1.48997423149175   -1.72987970602614
H          -0.51677518420306    0.65326742935723   -1.86100857724164
H          -0.27791800554148    1.54286217853193   -0.08981661828650
O          -1.64717517535047   -1.71042766742394    0.27538981054336
H          -2.15503552338926   -1.15959725259698    0.90989013026823
H          -1.35094636278040   -1.24413466449612   -1.23623036027032
H          -0.73362097183027   -1.59681590586156    0.58307679500955
O           1.61241307616636   -1.49088348861829   -1.52896006432411
H           2.25782393354461   -0.04516984770008   -1.45118921597985
H           1.39661264366562   -1.49736838558677   -0.58078681719092
H           0.74862072712071   -1.44884083436254   -1.97114752277970
N          -2.33929142631213   -0.03473365101982    2.30790451195831
H          -1.40267409729042    0.04082412628865    2.69540033846485
H          -2.96915376367181   -0.25649896912458    3.07027960174538
H          -2.58084991027949    0.88906621346059    1.96917833424586
