    26
        -50.45683228  Gyration_radius:  2.43351345805 Dipole_moment: 3.398
 S           0.75543263768898   -1.08180946615937   -1.28487128837436
O          -0.77029452999228   -0.91900510217285   -1.35763562105525
O           1.24498830901832   -0.50250594997923   -0.05378346059251
O           1.07840039498849   -2.44277923206798   -1.51262969768609
O           1.29138766705719   -0.20639424178997   -2.44873614118617
H           1.19165258022218    0.74800425373452   -2.18666207785100
O           0.99075835607252    2.27388272189388   -1.65032966557605
H           1.58223161416578    2.87722312384213   -2.10355772453347
O          -0.98505791938654    1.45828317329238    1.85174735296088
H          -1.61555367430164    1.70388688504436    2.52960987358875
O           1.55409864615784    2.00454953982020    0.85580996308478
H           1.27011005674069    2.26523122181394   -0.68157396550975
H           0.72442786095031    2.04198876316723    1.35958817134516
H           1.70681694501699    1.05449609377945    0.71547111222372
O          -0.21831253311203   -1.01377151634083    2.15302954113418
H          -0.70099021860792   -1.78108430630723    1.77579366370444
H           0.51826103982676   -0.90261552561354    1.53077911779668
H          -0.75006262344187    0.49968105560528    2.02004677840194
O          -1.48415491815964    1.42932918656793   -0.77488249343976
H          -1.37256556554551    1.49605678519462    0.20095164866021
H          -0.78474777740719    1.96680237084937   -1.17427182189394
H          -1.09898591328789    0.02746754526293   -1.12164173708121
N          -1.00339815468130   -3.08053720728542    0.56275199764566
H          -0.20210741674508   -3.03367804634281   -0.06083882812640
H          -1.81221510431689   -2.83687130335005    0.00328512476100
H          -1.11011975893208   -4.04583081246164    0.85255016759301
