    26
        -50.45683229  Gyration_radius:  2.4335327346 Dipole_moment: 3.394
 S          -0.96697275057576    0.88818183962970   -1.29134256786733
O          -0.79048384395624    1.62889200457041    0.04272072679351
O          -0.50205025021608   -0.47397744303442   -1.15277873553538
O          -2.30388411634105    1.05586787409460   -1.73062692651248
O           0.00573443998736    1.60842856782062   -2.26264263286887
H           0.93353690661553    1.34268561887579   -2.02161932069838
O           2.40657179124397    0.83207463602334   -1.54659358182763
H           3.04489138608576    0.91785407024913   -2.25684707681118
O           1.29308874702386   -1.31828000110306    1.76555499041236
H           1.48030747317997   -1.65482487968514    2.64247690734357
O           1.50069014452747    1.24259120810432    1.02540991247495
H           1.47979973771930    0.31997501359109    1.36819160507103
H           2.06784203356312    1.23712207078493    0.24063899406454
H           0.13299690685048    1.49067032003579    0.47571088007436
O          -1.19974528513728   -1.73035900598126    1.12896333409417
H          -1.03739304305607   -1.51951408133593    0.19552489258605
H           0.32208201902154   -1.49557749725452    1.59755352955368
H          -1.92814578899116   -1.11468169605776    1.36220692859227
O           1.91245096326749   -1.62653471644267   -0.92877026533840
H           1.90926973778410   -1.70192209384675    0.03963974821248
H           0.97788680428306   -1.49335674423195   -1.16214990312782
H           2.31021562857812   -0.15395411794899   -1.35937164473910
N          -3.11376665107397    0.20490702106217    1.03824086064340
H          -2.81973401482237    1.04777628592254    1.51740339598739
H          -4.10041927209757    0.07222204810484    1.22804788307012
H          -3.01476970346100    0.39373369805022    0.04445803634909
