    26
        -50.45683225  Gyration_radius:  2.43354044303 Dipole_moment: 3.398
 S          -1.03195255191594   -1.13857799163100   -1.01558983711768
O           0.26502719920816   -0.52820351479202   -1.20609757118136
O          -1.73742365691397   -0.48187937136053    0.18054493625005
O          -1.90871014154830   -1.11534498064110   -2.12874860619319
O          -0.78787757967584   -2.60237992131910   -0.56180183707719
H          -0.05394915206264   -2.59773640542066    0.10960481298178
O           1.47153623489838    1.61690616060854    1.32160978865404
H           1.67732472742236    2.42208292602485    1.79771376771574
O           1.16094872123154   -2.47278654726218    1.18890823183414
H           1.62821520216790   -3.30532314047374    1.27730979855354
O           2.60185179509216   -0.61900717949508    0.11275503308035
H           2.47387836686558    0.19920577235607    0.62036844134678
H           1.81382345538558   -1.81303905376699    0.79509732536577
H           1.96255103532417   -0.55111904148669   -0.61684258009450
O          -0.20217543211756   -0.28672547445172    2.17276619474864
H          -1.13896020937864   -0.38180707914721    1.01198751730728
H           0.30408012342451   -1.11096552194005    2.12926047252930
H           0.41989031247691    0.44193921193559    1.94641670383260
O           0.35226668426005    2.15652859791419   -0.96875593824439
H          -0.61299100472651    2.29711175136699   -1.08035413368022
H           1.03326201191278    1.89957173843106    0.46691568865742
H           0.46990700068577    1.24651741794756   -1.28528969484089
N          -2.29247731410175    1.80463156585568   -1.51597702592764
H          -2.18572933394402    0.87922861406428   -1.92259493842538
H          -2.84544980120039    2.35980849696751   -2.15877572852079
H          -2.83686669276610    1.68136297971622   -0.67043083156049
