    26
        -50.45683228  Gyration_radius:  2.43355342014 Dipole_moment: 3.398
 S           0.70213915805086   -1.30086137131385   -1.09891766990781
O          -0.22158237081380   -0.27736031636022   -1.77635715802793
O           0.63837795216085   -1.13358706561968    0.33597467780572
O           0.39295380386850   -2.59115232141427   -1.59693543335253
O           2.12907955853216   -0.88622585926779   -1.54624024213849
H           2.37588880236535   -0.05672459538910   -1.05582087479167
O           2.67757724581214    1.29196528269209   -0.19186894364434
H           3.62079691177905    1.44388724979962   -0.11108424307159
O          -0.98974588753516    1.73227768158860    1.59558362840426
H          -1.67519922838259    2.28959633661173    1.96558626759002
O           1.55496465222916    0.70917810386608    2.05991911384759
H           0.72942282152362    1.21641427495419    2.12865271940354
H           1.27938712727231   -0.14938076726910    1.69580933163391
H           2.33169279000964    1.10820911442778    0.73722722172403
O          -1.81960639592200   -0.72727638200881    1.36815123805528
H          -0.92102152653640   -1.05755420112739    1.20819256712391
H          -1.38239572038281    0.81412036765506    1.52288099739911
H          -2.31148992882071   -1.06319853039504    0.58765345796165
O           0.09992301696426    2.03776939486264   -0.82709811423063
H           1.05566120290914    2.07168376123355   -0.67548302949370
H          -0.12056086549934    0.67955180665458   -1.41086351905616
H          -0.32836704055236    2.01283268312665    0.05891964216187
N          -2.47647292680113   -1.92397413806532   -0.98859999358225
H          -1.56384779817847   -2.34414689105170   -1.14232354721266
H          -2.60485807021949   -1.24607324925126   -1.73051925663476
H          -3.17271728383099   -2.64997036893110   -1.11243886797413
