    26
        -50.45683228  Gyration_radius:  2.43354293501 Dipole_moment: 3.397
 S          -0.19928075121989    1.57829997352756   -0.92831830291153
O           0.03228465467237    1.26052232140340    0.46316799887367
O          -0.57885301074846    0.29968837617132   -1.69030859103961
O          -1.17458714284604    2.57163533116300   -1.19372592133585
O           1.16548859491821    1.99745045070066   -1.53637712886692
H           1.85778842224183    1.36654336307716   -1.20143259879919
O           2.90743425239021    0.28336101810682   -0.58416210922103
H           3.80211798476112    0.62777541023757   -0.59614155552255
O           0.23732441499583   -2.14280860311632    1.37066671323940
H          -0.02081741460837   -3.00557300656108    1.69683542788754
O           1.97576325867031   -0.01530909036609    1.80603733682656
H           1.26225942424209    0.61320347713707    1.60227637332244
H           1.52990549568859   -0.87699331233996    1.85328925332862
H           2.65151049683204    0.17160281775641    0.38471303447074
O          -1.72600246322690   -0.44403517519323    1.59218143538719
H          -0.56483811297914   -1.55222982821455    1.47154529712014
H          -1.14257906686843    0.31269537747956    1.42158820748275
H          -2.42463277861332   -0.33129055453078    0.91161669457225
O           0.97903284418751   -1.60731554376630   -1.14194820826518
H           1.83617905433877   -1.16322427475678   -1.06676175272179
H           0.72521286663946   -1.89232939768103   -0.23451296783422
H           0.03390555528599   -0.50210927262979   -1.48779484594845
N          -3.21595962143253    0.47604508757392   -0.49389832801245
H          -4.19003372840562    0.75273018000405   -0.45189437251981
H          -3.09451902864052   -0.09458672635838   -1.32225046678046
H          -2.66410419027237    1.31625161117133   -0.64439062273096
