    26
        -50.45683218  Gyration_radius:  2.43353560972 Dipole_moment: 3.397
 S           0.46569622373850   -0.25784312527288   -1.76341775132898
O          -0.61525887538074    0.44658942058976   -1.11056322384283
O           1.19837354052216   -1.13714947463527   -0.73892807946548
O           0.11296987854335   -1.05811670120274   -2.87854196067211
O           1.51805229651899    0.80293924952667   -2.18218636823408
H           1.62847502381538    1.44080700160604   -1.42682180393880
O           1.71901647364383    2.42933732425750   -0.13446570824238
H           2.05509794475823    3.29138260831393   -0.38589775449463
O          -0.74751487175660    0.36632571639976    2.41607225469278
H          -1.00145487996475    0.10677406096276    3.30235701469443
O           1.70752295868680    0.12725316298565    1.38400030376042
H           0.84280855585418    0.20943781195609    1.84720114969115
H           1.41869431356498   -0.65443571659887    0.14296550174177
H           1.93358043226492    1.00888916021040    1.05368481517514
O          -2.07561433932780   -0.99744737373865    0.63712974588870
H          -1.28143835989427   -0.20588230594789    1.79147960385189
H          -1.80578353493043   -0.40155333877315   -0.07996839290231
H          -1.78957883124486   -1.87526143369243    0.30277328093579
O          -0.74932459133794    2.49220144552211    0.62252619126170
H          -0.83586961101289    1.95218484436503    1.42531914824770
H           0.76917790319126    2.56617858770172    0.17498234244318
H          -0.98253448321334    1.88564524701910   -0.10095398949238
N          -1.02260403416153   -2.99842440960936   -0.88059672759628
H          -1.52856411622419   -3.80331259211133   -1.23146004264003
H          -0.13907485232778   -3.32860432321443   -0.51081759990627
H          -0.79485016432671   -2.40791484662063   -1.67587193962595
