    26
        -50.45683218  Gyration_radius:  2.43361689434 Dipole_moment: 3.397
 S          -1.17928205137804    0.84200840434464   -1.13747249866209
O          -0.96263234409765    0.88974719373663    0.29137273533386
O          -0.39777546463815   -0.33736420141878   -1.73590849737084
O          -2.52691438044727    0.75901297816573   -1.56802787821278
O          -0.50340199157396    2.09935638742580   -1.74628927199049
H           0.38041915025486    2.21704844022961   -1.30546791424080
O           1.80069503694875    2.31782505753724   -0.51143082580837
H           2.14582938472312    3.21196276241207   -0.53718257591650
O           1.56523767789969   -1.16148858799806    1.65180125273704
H           1.98771842343254   -1.90733977998770    2.07904991927739
O          -1.01961615981026   -1.48151618469855    1.57456227297052
H          -1.16661462681239   -0.55481705900763    1.32615019432048
H          -1.48373591065749   -1.96926584004525    0.85999745645754
H           0.58395632910348   -1.36026501351284    1.64437433387027
O           1.97452319511955   -0.40923294709744   -0.88109159955289
H           2.20935731918052    0.52900419190094   -0.83479006013821
H           1.90318543590786   -0.73116210955651    0.04652212746469
H           0.57513311263833   -0.40103311692494   -1.40577454142335
O           1.10464177833267    1.57414947004827    1.86218132629437
H           1.43570307633825    0.67270048149211    2.00797568817715
H           1.59292026217400    2.11353397733979    0.45373292459298
H           0.19228948602992    1.44723469014720    1.55060804870004
N          -2.43116545318371   -2.10988007551904   -0.66839878950795
H          -3.28850049665330   -2.64958163067935   -0.69839752851751
H          -1.82843745471305   -2.45031759741421   -1.40815723219868
H          -2.66353333411696   -1.15031986091968   -0.90993906665532
