    26
        -50.45683219  Gyration_radius:  2.43357706327 Dipole_moment: 3.397
 S          -1.68527036128064   -0.13427553481132    0.73250123049199
O          -0.37991299253240   -0.60745755042865    1.13627871296280
O          -1.62311589317948    0.36783268667113   -0.71793687409119
O          -2.75373590624518   -1.05804920343906    0.84808139835658
O          -1.99026610960543    1.13804922048837    1.56693666644735
H          -1.16518671534232    1.69306154278099    1.59404335756274
O           0.24332027771703    2.51311818584018    1.58130646395368
H           0.29431476877403    3.11792873537452    2.32349560549045
O           2.36126064471287    0.09621365919516   -0.97207281081490
H           3.03583732662686   -0.02011810629758   -1.64190585349529
O           0.95883154731827   -2.08074541944031   -0.68310655856884
H           0.55761173595943   -1.76055421608578    0.14066025949717
H           0.17373781553453   -2.29559703449447   -1.23220839926623
H           1.85672197805542   -0.76750677799009   -0.92785863713255
O           0.36625063326628    1.87178111447054   -1.09797121882614
H           0.41370076252821    2.36989937684171   -0.26901854121572
H           1.14451468536193    1.26905819803385   -1.11319191148613
H          -0.81994673672150    0.98200895917992   -0.91134141198153
O           1.95115746275023    0.58173929410711    1.73649049873109
H           2.36214996740254    0.46729153718175    0.86390156089650
H           0.96580439335542    1.82322944004529    1.71769734305015
H           1.21981700017903   -0.05913474106820    1.74337459184214
N          -1.59283134071169   -2.40255770529098   -1.57903254361618
H          -2.03790391153640   -2.14324619423948   -0.70275969282718
H          -2.00758014538928   -3.27456762685893   -1.88698636557202
H          -1.84928087699484   -1.68740184976155   -2.24937687038983
