    26
        -50.45683221  Gyration_radius:  2.43363955263 Dipole_moment: 3.401
 S          -1.11236834202393    0.47026681373819   -1.39174518726061
O          -1.80260080170293    0.18559296114041   -0.04926979395266
O           0.27857269528909    0.08331766968163   -1.31133636815288
O          -1.87285374155828   -0.12502164897259   -2.42886456493838
O          -1.15170745354381    2.01599623812594   -1.52416087266159
H          -0.48934014029235    2.39572263286874   -0.88653595026112
O           0.63004458589761    2.90560930788262    0.18292073044137
H           0.94454260521342    3.78293339054373   -0.04213446240681
O           1.59689088911200   -0.71123588538721    1.86440053900128
H           1.88908509638982   -1.22985489293153    2.61472904406138
O           2.44444693594151    1.08663642305565   -0.08209301426391
H           1.41429820301079    2.28023029499110    0.08096731813292
H           2.40939957361880    0.50588753719287    0.69569008910891
H           1.89108066394045    0.63653014025103   -0.74300993750668
O          -0.43520776235237    1.02622878656614    1.89688484001021
H           0.31557603544199    0.39434715345031    1.97569772584799
H          -0.06948074355237    1.85448182674390    1.55363855780776
H          -1.27009569659461    0.51145144678394    0.76916771061073
O           0.78515178702948   -2.25674477420763   -0.07010831893653
H           1.28740835121894   -1.36598920372834    1.17303676627276
H          -0.13056872500941   -2.60431984218944   -0.13768447236118
H           0.77912539093004   -1.52383061699282   -0.70641176506932
N          -1.82371508473993   -2.62712396504574   -0.75963242478631
H          -2.45326206122928   -2.30290537646522   -0.03499932740215
H          -2.21927271220662   -3.47283727309767   -1.15397189563707
H          -1.83514955822913   -1.91536914399627   -1.48517498570428
