    26
        -50.45683225  Gyration_radius:  2.43352624824 Dipole_moment: 3.398
 S           1.31576026673539    0.60655037955795    1.13745023498603
O           0.69403134962508    1.66077528129387    0.20918415324027
O           0.86326646541287   -0.70958093638339    0.74514136963832
O           2.71846341432007    0.80513200506817    1.17517726138579
O           0.69866250741813    0.90776583986917    2.52908780307704
H          -0.25034444350225    0.60996694396673    2.51553453971406
O          -1.76809018129663   -0.92554420390661   -1.59496206251255
H          -2.22454006342303   -1.02697958486568   -2.43086617956389
O          -1.78541971519646    0.07832934161248    2.38362177135888
H          -2.15755438406229   -0.11236854676377    3.24641327395423
O          -1.78234411632000    1.28773372569819   -0.09468312765325
H          -2.06070286705478    0.99806851986119    0.78633016637316
H          -0.31671689172345    1.53727396630292    0.05845972972515
H          -1.85277269607894    0.50489509763499   -0.68742677549103
O          -1.46276783198507   -2.03658183018277    0.93677299503246
H          -1.73246606600661   -0.79880866707834    1.88914399191230
H          -1.77557624881807   -1.84107264138355    0.03818499128910
H          -0.50682214183305   -1.86184019351658    0.90134545759320
O           0.80471360624078   -1.19581554065858   -1.90665312101312
H          -0.79176768873723   -1.02484915970020   -1.79358734943835
H           1.40101341309219   -0.45667848504905   -2.15586303928239
H           0.95240848863396   -1.27132271644165   -0.95028914205335
N           2.59387869394319    0.85623853162036   -1.82991694649324
H           3.46598381028210    0.90357143843835   -2.34411506597493
H           2.82306968778769    0.74908675210037   -0.84549971687668
H           2.13663361254072    1.75605467290391   -1.91798521291979
