    26
        -50.45683229  Gyration_radius:  2.43351325776 Dipole_moment: 3.396
 S          -0.40272141086868   -1.70321285786213    0.57330821718132
O          -0.29432238587672   -1.51550856360907   -0.94741879723405
O          -0.37535320048725   -0.41155988131323    1.22271351087088
O          -1.52409195939922   -2.52411348379642    0.85094455670093
O           0.90560878710083   -2.44079978544032    0.96378918235021
H           1.65470133567346   -1.78869560462635    0.90764936803514
O           0.49370341010236    2.39960450841813   -0.72417405998608
H           0.40099545929986    3.18769030975761   -1.26053173397491
O           2.80082854716077   -0.63575178670235    0.79218271539248
H           3.56551314086756   -0.85780558857888    1.32624228200074
O           1.55318032978916    0.09034820188141   -1.55728991219389
H           2.24036324667593   -0.12449701507579   -0.90983668841025
H           0.44788377935107   -0.86231151147863   -1.23375021456408
H           1.20686022106714    0.98086998788215   -1.32031376707904
O          -1.83646651424335    1.52832785674597    0.05069360709664
H          -1.43941561150662    0.92810256805683    0.70201699342538
H          -0.43451608423292    2.11544508309400   -0.47878988535640
H          -2.39401833818480    0.92246627431924   -0.48420140491075
O           1.52531600004720    1.43101251679211    1.67068512127126
H           0.73125348572818    0.88356475509313    1.79473610830785
H           2.39702961628530    0.19629834331670    1.19383159497261
H           1.30866179271254    1.99932270111847    0.91331064116759
N          -3.07263612802320   -0.68122103290409   -0.95279845507320
H          -2.72989286194154   -1.31785991590679   -0.23844102528409
H          -2.65442128988215   -0.98251162848492   -1.82503958072560
H          -4.07404337721880   -0.81720447069710   -1.02951834398516
