    26
        -50.45683219  Gyration_radius:  2.43367917144 Dipole_moment: 3.399
 S           1.05406136199336   -0.92681739319950   -1.19381516185185
O           0.91605421390869    0.47340383118981   -0.86033866949507
O          -0.09938241157827   -1.72083910833892   -0.56228260681916
O           1.12042726157059   -1.24215362152644   -2.57382428850022
O           2.32262578096623   -1.44853201932001   -0.46793668743440
H           2.32244954094923   -1.07876760541931    0.45548806644978
O           2.22511640694431   -0.40874090349110    1.93822771539749
H           3.08876026846218   -0.36512137700580    2.35229329413903
O          -1.45883857599178    1.36685743596393    1.59242687469128
H          -2.27850230332330    1.66849804953458    1.98550584893479
O           1.25914245454050    1.91972520024823    1.37563418921469
H           0.32530806846323    1.93472086805205    1.64240887993018
H           1.92393253019336    0.54231704057751    1.79227204703855
H           1.23602478199319    1.67829461605308    0.43395021447217
O          -0.44497506559851   -1.09317319785830    1.85662777403406
H          -0.27259546901843   -1.48731585783196    0.42503509653492
H           0.46160055310019   -0.96401212929341    2.17125466200574
H          -0.86776085525340   -0.20440711258669    1.83378269442770
O          -1.58014391056407    1.48391736062809   -1.00789862011806
H          -1.58421856014228    1.42453445317851    0.60076575169512
H          -0.62237334542728    1.35497419760600   -1.09798109081478
H          -1.94494911540089    0.76341053109546   -1.56619584593924
N          -1.83405417163912   -0.68053717089658   -2.64170546718796
H          -2.30264005328998   -0.69410953788156   -3.54025481019745
H          -2.12678122907589   -1.50487835608478   -2.13055912613761
H          -0.83828813678018   -0.79124817339265   -2.81288072446752
