    26
        -50.44772987  Gyration_radius:  2.51303660185 Dipole_moment: 2.777
 S           1.61868374051355   -1.35003743876065   -0.15157452259449
O           2.38730152087437   -0.37205262717075    0.63800999511531
O           0.96932660326963   -2.32503088027734    0.69197214200013
O           0.73402301204968   -0.70491155380782   -1.09525155162053
O           2.70084897600431   -2.12695974713732   -1.00326749753473
H           3.17808865375252   -2.57720605436223   -0.31462818843032
O           1.09556214399603    3.21727021663739   -0.27619851690038
H           0.69145264924019    4.07432869519668   -0.13244010596108
O          -1.29971497145227    0.88382087786826    1.48524767237850
H          -1.80948639680633    1.07224924923706    2.27473697843073
O          -0.69975848002930    1.55984300720788   -1.18541751489505
H          -0.16166954289365    0.75512233220818   -1.31400238609967
H          -1.20683630590639    1.38704668094401   -0.38002011971737
H           0.43682549677611    2.66737523445210   -0.78634010169442
O          -1.54865611826505   -1.59641476937415    1.08202978302135
H          -1.40357274210603   -0.13055289669106    1.32729102752964
H          -1.88218536264102   -1.67656935181817    0.15670784648857
H          -0.63926392129188   -1.96081811575651    1.04147688473584
O           1.17343257789972    1.51315892744656    1.61763724394266
H           1.25396872096594    2.25210308498685    0.91039191627721
H           0.18711098853891    1.23339932904206    1.61393174602232
H           1.73793919991655    0.67154899842741    1.21486547159717
N          -1.96398861930629   -1.63714695883888   -1.59280723328731
H          -2.46720862652239   -0.91033822422021   -2.08643456709928
H          -2.11078656531510   -2.50696678499016   -2.08869025297299
H          -0.97143664127963   -1.41226123045164   -1.64722613869335
