    26
        -50.45567446  Gyration_radius:  2.46075902472 Dipole_moment: 5.095
 S          -1.19492209651999   -1.53499455978122    0.06718590366362
O          -1.10666660706938   -0.09609063372284    0.02165173334209
O           0.23159818198227   -2.11359097552472    0.14788723124741
O          -1.99446734335193   -2.05008151869682    1.13628328396106
O          -1.71850435539397   -2.05148667869004   -1.27611178178168
H          -1.06064738774704   -1.63724568378942   -1.97457310445216
O           1.27595292035027    1.46167290869631   -1.72115908415579
H           1.89398120875572    2.12855853272411   -2.02391085420556
O           0.82042253450086    1.09546367072687    2.37892318253840
H           1.30483719929527    1.05712939120618    3.20531847522398
O           1.91539114036953   -0.24831203597883    0.30252787573529
H           0.94986874474381   -1.37248817484096    0.21071797223198
H           1.75005717508103    0.32009890100658   -0.47657089996866
H           1.57235628608762    0.25386425123103    1.07290895627314
O          -1.49033680982859   -0.11045407275084    2.91317847612113
H          -2.20057929405106    0.49930720334614    2.70088226475279
H          -1.66714454059404   -0.90570462398507    2.37293292830861
H          -0.03647658116413    0.62947630183216    2.54609869870734
O          -0.28534303396602    2.43231814684202    0.15944059726857
H          -0.82293413473477    1.62461574018015    0.08985992511227
H           0.19631235630884    2.31421359733554    0.98974388546858
H           0.65516375713819    1.91967523671141   -1.09175370949409
N           0.04858694252264   -1.00887323962270   -2.80475694912493
H           0.30181908838326   -0.09797878226966   -2.42680510173711
H          -0.19721369067672   -0.89713022597572   -3.77980589328622
H           0.85888833957168   -1.61196265620796   -2.74009401174637
