    26
        -50.45567462  Gyration_radius:  2.46065788517 Dipole_moment: 5.092
 S          -0.25825067829157   -1.41647041362111    1.31024716166720
O          -0.87469127211842   -0.31403175807200    0.61389863854282
O           1.22695094075216   -1.48736084864444    0.90313061337726
O          -0.37384775733006   -1.36143571649670    2.73540560896950
O          -0.83917047465657   -2.73301967712859    0.78638174433658
H          -0.68430455071286   -2.67868989349410   -0.24596218640731
O          -0.12273760863371    0.39481875553690   -2.56139201821023
H          -0.00879877065533    0.87025012732027   -3.38562655966794
O           0.85543476465571    2.44641297915865    0.90139818192135
H           1.51656866101660    3.01892429010986    1.29401730157359
O           1.79924693913669    0.42633462041019   -0.62935916779819
H           1.49996126661192    1.19335120075974   -0.09499470386899
H           1.49560081490721   -0.71479301957132    0.27072578558233
H           1.16902966537237    0.36341304960033   -1.37521693845704
O          -0.34713972890825    1.30533030735792    2.98257524839575
H          -1.28739901214099    1.48805019089617    2.92038617357767
H          -0.27811303866711    0.33060958495349    3.00729253358433
H           0.40939907530924    1.99018015879747    1.65784815890856
O          -1.33672368424523    1.90456597633181   -0.78297854584260
H          -0.67375211603744    0.97982734376410   -1.97377034092322
H          -1.42591871919519    1.11777774611366   -0.21796251001948
H          -0.63977013391339    2.41733698990350   -0.35081292195568
N          -0.28929794671983   -2.43388630024944   -1.69413794631427
H          -0.82111652012548   -2.98825392250505   -2.35249065930744
H           0.69085579202591   -2.66899541612779   -1.78699455410254
H          -0.40201589743782   -1.45024634510906   -1.93160807755454
