    26
        -50.45567451  Gyration_radius:  2.4606768056 Dipole_moment: 5.093
 S           1.89729591718861   -0.14938243818550   -0.40860532552857
O           1.74678396512217   -0.61305322963960    1.05387034076051
O           0.60338757752995    0.25869066672501   -0.89808812633242
O           2.91418762103165    0.85283350502082   -0.50337099662928
O           2.33936385129702   -1.41713277196274   -1.14527520625592
H           1.54556276556937   -2.08015653823576   -0.99568402734758
O          -0.88924866275948    2.32996231758662    1.14487469740974
H          -0.92876564173017    2.95346961791388    1.87199818139755
O          -2.17909126187970   -1.40432934881991   -0.09850642974411
H          -3.10035209760040   -1.61228352677556    0.06408044885243
O          -0.62324383401886   -0.27250268459676    1.83185258302940
H          -1.18212730463884   -0.75746271461911    1.19160074794119
H           0.78242800018762   -0.48827743404030    1.40535736287792
H          -0.75469085167018    0.67884544245216    1.62923731343075
O          -1.94127392391227    1.01122843510724   -1.11121562197625
H          -1.00491184882223    0.81431640353593   -1.28631658761165
H          -2.16847269636437   -0.52866048645012   -0.57197220474722
H          -1.90966481217813    1.61324312366830   -0.35489789141710
O           1.33060766965434    2.98668927687299   -0.16676015967222
H           2.00084854597425    2.27653299119385   -0.21079775806886
H           1.09468132341008    3.16503250370472   -1.07992263824333
H          -0.05536999925025    2.53912501469564    0.65465472763223
N           0.33117345230826   -2.90224160357316   -0.59010582156591
H           0.48666954985538   -3.23310128816003    0.35379651040702
H           0.16979481672707   -3.69922697561787   -1.19210982448594
H          -0.50557212103091   -2.32215825780206   -0.58769431409884
