    26
        -50.45567465  Gyration_radius:  2.46068501016 Dipole_moment: 5.092
 S           0.78760973624853   -1.12830995736627   -1.37714924858762
O           0.49512908759528   -0.99716137623237    0.02910230676687
O           0.35310099613275    0.16592382776993   -2.09328479944177
O           2.15616354906610   -1.41892602722705   -1.67735414256343
O          -0.12251267660566   -2.19967341411689   -1.98455357302042
H          -1.08474873023667   -1.88156798408837   -1.72834152626940
O          -2.29438238497396    0.48620909988535    1.10946434345186
H          -2.92327718626050    0.94676511555369    1.66692216502581
O           1.62695319624777    1.81111803896265    1.26602174704844
H           2.17137202888627    2.60017340199486    1.27055896962374
O           3.24988016847959   -0.10401753776096    0.38384211223745
H           3.26691159796187   -0.80528925898701    1.03903055524887
H           2.95757828533033   -0.53517769977980   -0.44328763969882
H           2.20373829828336    1.08684078531058    0.91660324675805
O          -0.49032278754296    1.84425653664597   -0.41678110309079
H           0.26815010334789    1.88940517971946    0.20454013615310
H          -0.00099355200573    0.87765935637182   -1.43225821643954
H          -1.20511232840071    1.39005982738683    0.07328945818606
O          -0.10247494113643   -0.07005380015876    2.45189377563097
H           0.45934197896583    0.71373690082828    2.37798577012412
H          -1.53964414439272    0.21751697294738    1.70056469536466
H           0.17983995182713   -0.62534548302359    1.70476562547609
N          -2.38331217692260   -1.19978444579441   -1.32594243042236
H          -2.56486400055208   -0.46676381333653   -1.99995771741072
H          -2.28858533778032   -0.76883180123048   -0.40835380908863
H          -3.17553872156762   -1.82876245428091   -1.30732071106091
