    26
        -50.45567365  Gyration_radius:  2.46069744142 Dipole_moment: 5.104
 S          -0.38557746854809   -1.89828673187158   -0.18773472541800
O          -0.82166022001173   -1.52774704181017    1.24361389325072
O           0.17443722374423   -0.72716666184571   -0.81662153282742
O           0.48587797510133   -3.03285649212298   -0.15721608916467
O          -1.70044876022173   -2.26383619678966   -0.88238893734855
H          -2.25937788971670   -1.38179673276913   -0.83472860103317
O           2.43087705580037    0.71942994360926    1.05722642316000
H           3.06120939526052    0.76405281098656    1.77815417658721
O          -1.12604452176515    2.30744915534853   -0.34721696551531
H          -1.21905250256590    3.25960405784847   -0.29101100650979
O           1.23449042374690    1.66391642928976   -1.31119876866544
H          -0.26122235762578    2.13713414200806   -0.81031794422455
H           1.83323667875276    1.64427054889006   -0.55188094234661
H           0.92230340191261    0.74520826424667   -1.38037595751168
O          -0.17957844024217    0.85245682563212    1.75412306427676
H          -0.57347706205995   -0.55386436589363    1.48662359309954
H           0.77900150891636    0.84193982367297    1.54371775741199
H          -0.59720855252673    1.39106036042394    1.05207005376054
O           2.80039466276293   -1.69418781188445    0.00120979399031
H           2.01387751862183   -2.27377208178331    0.03243875615595
H           2.99110508929497   -1.58144954194745   -0.93268029207615
H           2.53341860196570   -0.18303566453402    0.66401887904369
N          -2.92435424482951   -0.03677803108132   -0.58598675198091
H          -3.68708281661116    0.15443463854710   -1.22258942321330
H          -2.24185650268335    0.71504547104815   -0.66164619371342
H          -3.28328818647161   -0.04122512721839    0.36039773081018
