    26
        -50.45567461  Gyration_radius:  2.46068290346 Dipole_moment: 5.092
 S           0.44694615006293   -1.79417818514258   -0.60878379856261
O           0.69829330434912   -0.38400194605530   -0.77763905573272
O          -0.66469760227775   -1.97367156669096    0.44412543946846
O           0.09924002274490   -2.48651919574372   -1.81181470663276
O           1.66848811905144   -2.45076015408391    0.04077033018621
H           1.81904303483660   -1.88920361610337    0.90934245678043
O          -2.05818055801068    1.30941019812573   -1.25668514142973
H          -2.98570970006792    1.41249293544975   -1.47595471727954
O           0.69125549940378    1.72143824797478    1.81406035712411
H           0.63154427685972    2.52343063283570    2.33524611233604
O          -1.52926954881625    0.27196295224827    1.18447938822420
H          -1.04168336266759   -1.06836475779799    0.77169325721442
H          -0.74500972059173    0.76466756435975    1.50007244637593
H          -1.76641938337875    0.67745431053863    0.32265983149101
O           0.54060963699015    2.27338281974665   -0.75288477587120
H          -0.40302234193249    2.29922305845055   -0.96336133870979
H           0.73159607536524    2.00822780483496    0.86155140826732
H           0.79099429189279    1.35152576845474   -0.93647964298804
O          -1.15454795795249   -0.45702012801141   -3.02951002475877
H          -0.41532040136190   -0.05977405733934   -3.49542534575930
H          -0.79730268026117   -1.27849804825736   -2.63830149762918
H          -1.70421175543922    0.63572693406495   -1.88932560105474
N           1.80595554207513   -1.00448419212648    2.14670262615269
H           1.54462450412897   -0.05201746899234    1.89942751214488
H           2.69444310954254   -0.98061122532329    2.63003298151141
H           1.10234146539777   -1.36983870534522    2.77600149915204
