    26
        -50.45567446  Gyration_radius:  2.46081212624 Dipole_moment: 5.094
 S          -0.92356824330912   -1.43465646206668   -0.93700199744185
O          -0.99117884958189   -0.48096600469735    0.14291671026240
O           0.46125141543099   -1.32447062596358   -1.60530131834437
O          -1.17643493934235   -2.78972901912410   -0.55299866756585
O          -1.89341745955878   -1.01276839420035   -2.04451168011102
H          -1.61183974177221   -0.02945853799731   -2.25953549403347
O           0.34003882959167    2.56809359907769   -0.12223284283459
H           0.72195296847116    3.41751205088914    0.10361957198555
O           1.60431688938297   -0.67437283529596    2.12275780790631
H           2.38092325252784   -1.09399658681123    2.49668641541404
O           1.88982851507583    0.33978537949555   -0.36876760170002
H           1.37490156869955    1.17174524764044   -0.35907629087772
H           1.84127861573852   -0.01101705501084    0.54657492908298
H           1.07414973590449   -0.64633534363126   -1.12234334461732
O          -0.17850329944924   -2.63995126641980    1.92804324508766
H           0.93278991567971   -1.39361893722551    2.01742654135299
H          -0.96611802862700   -2.37597579946196    2.40899367726708
H          -0.48465096797562   -2.82125828948985    1.01761404615926
O          -0.41545006906574    1.28806926297948    2.04711479367705
H          -0.86053959008511    0.63985933671110    1.47442057013513
H           0.36752513334679    0.81477116216901    2.36075904268565
H          -0.01480242831075    2.18566590133810    0.72579552514907
N          -0.99146681129450    1.34335096819088   -2.46979943509737
H          -0.69048669465893    1.73649707478816   -1.58012228801855
H          -1.61753314081096    1.99969064895630   -2.91794062513518
H          -0.17296658600520    1.22353452516654   -3.05309131038913
