    26
        -50.45567465  Gyration_radius:  2.460679367 Dipole_moment: 5.092
 S          -1.87497158050148    0.20332774343316   -0.48308370111704
O          -0.93129331682213   -0.50070491579900    0.35003283702725
O          -1.09609968391278    1.15059273821235   -1.41734736011343
O          -2.73920093456774   -0.64048916404751   -1.25027922336431
O          -2.70401345102722    1.15414098854546    0.38509543746893
H          -1.98452258154441    1.73076249467599    0.87760097946004
O           1.49621587321859   -1.83147812878069   -1.39151626384585
H           1.91837515997352   -2.14435537770841   -2.19333063107409
O           1.76674586496374    1.01147658879894    1.60866651163267
H           2.63810862710271    1.15825570408503    1.97956485133980
O          -1.02168619638040   -2.66503862321744   -1.60415090938475
H           0.54868056136486   -2.10892531675983   -1.45905065222757
H          -1.22629554776674   -3.19450601625933   -0.83010812624835
H          -1.68773053351285   -1.94960119719139   -1.60673013268933
O           1.27053629079194   -1.56299101627216    1.40366783206500
H           1.64129525311063   -1.83722701300379    0.55351727652992
H           1.60398307679938    0.03033574574526    1.65447320291580
H           0.34839993940654   -1.33907716982958    1.18972524766880
O           1.38181865779420    0.85342687405041   -1.08482144908958
H          -0.07280295035895    1.05516428743534   -1.30486262528226
H           1.53890342128563    1.00198558357880   -0.13053638674729
H           1.47669418575119   -0.11403327088575   -1.22035627371191
N          -0.78814508715873    2.50061659624059    1.41525527007393
H          -0.00542436788634    1.87068015501210    1.58010751398947
H          -0.98695686493855    3.00015190443747    2.27230177858958
H          -0.51061379518710    3.16750977550402    0.70616498613000
