    26
        -50.45567463  Gyration_radius:  2.46066992164 Dipole_moment: 5.092
 S          -1.16317352901976   -1.54276390041663   -0.23809594255830
O          -1.09901943570228   -0.14408376145578    0.10804162532913
O           0.27107846024374   -2.05969107048272   -0.46690135323459
O          -1.83330881664443   -2.36493600593971    0.72233555838229
O          -1.82428791522580   -1.69353719532044   -1.61118797273351
H          -1.25060676022297   -1.07806295005388   -2.23126832617867
O           1.05794902494771    1.93139796164172   -1.37164788056243
H           1.62919527819859    2.68216268293682   -1.54021775291061
O           1.06384171859093    0.43695159786385    2.49136542807614
H           1.63732929076416    0.19495720449777    3.22045561887441
O           1.93893923464827   -0.23835153302598    0.02281454122111
H           0.98259600883896   -1.33432073375985   -0.27582761850451
H           1.68151345177150    0.51409429906994   -0.54723444708127
H           1.67727981222138    0.01867617610761    0.93322237413994
O          -1.15710429887020   -0.96851800661180    2.90563262295231
H          -1.38335677889014   -1.59158043947371    2.18724565821911
H           0.23717589624923   -0.09402401337624    2.61010847040560
H          -1.89429604731780   -0.35511921717018    2.94613529755603
O          -0.29729437320258    2.28203111290711    0.85467699659406
H          -0.82939979399850    1.50230596214528    0.61983213336347
H           0.27443415492774    1.96153477712095    1.56589597154848
H           0.50475202836093    2.17212452816518   -0.57966801772424
N          -0.24400887949231   -0.20303105255468   -2.96269470372450
H          -0.59173823873399    0.15622403130991   -3.84225192720090
H           0.57700789190113   -0.76700184120125   -3.14282330619087
H           0.03450261565327    0.58256138707599   -2.37794305806412
