    26
        -50.45567407  Gyration_radius:  2.46085982593 Dipole_moment: 5.097
 S          -1.12838024006821    1.47161582468511   -0.58997134835642
O          -1.08403051949318    1.57405939385843    0.94754632900139
O          -0.36694814039931    0.31616883430522   -0.99695451070815
O          -2.48551810111211    1.48144475552433   -1.04359479889385
O          -0.40885401593414    2.74014726845344   -1.05695462911882
H           0.55335584594635    2.63906533171882   -0.66117265018207
O          -1.21837984090426   -2.37113889567750    0.65972353566427
H          -1.79016516225508   -2.90379299496388    1.21504705114607
O           2.48528476150296   -0.52472179340105    0.51491644754567
H           3.22989702731769   -1.03618164327796    0.83479352040854
O          -2.87801774223841   -1.16802228419721   -1.03638599077783
H          -2.86547237755053   -0.19166229430589   -0.99087469303526
H          -2.59553396809163   -1.38054111520069   -1.92871972690284
H          -1.81808612061699   -1.89314468551668    0.03416242480231
O           0.14758612205670   -0.39935402718054    1.91069341268052
H          -0.34065863396097   -1.14737808161963    1.50412526943534
H           1.02612930982329   -0.39366095324647    1.47999481044787
H          -0.58337553316217    0.77779096672426    1.37666362249515
O           0.97280392597349   -1.98284061274324   -1.06655373357699
H           2.01674097607834   -1.09792862803071   -0.15091612976836
H           0.35731349356089   -2.45098227148284   -0.48562799238775
H           0.49097938347117   -1.17201094636822   -1.30454985347628
N           1.85293879558762    2.33608352159018    0.06834537857987
H           2.04751589836940    1.33686408181622    0.04594831048582
H           1.73358899322600    2.61140315023526    1.03498555805880
H           2.64928586286907    2.82871810829850   -0.31466962355796
