    26
        -50.45567464  Gyration_radius:  2.46067750904 Dipole_moment: 5.093
 S          -1.26907161523481   -0.56143178036582   -1.36530675203558
O          -0.88827092427261   -0.67136880690158    0.02148358429937
O          -0.22911176852416    0.31291506995474   -2.09369747120998
O          -1.41931660888650   -1.81232282026531   -2.04368179673935
O          -2.56210240114229    0.25228422734014   -1.47104002654542
H          -2.33694871610665    1.14142620029199   -0.96971713461501
O           2.24816550038663   -1.52833467553716    0.37358493841240
H           3.08947731739185   -1.88094021605538    0.07881950597678
O           0.37867357809841    1.92056574279555    1.70276413821553
H           0.85275631200258    2.43876471197096    2.35475657578614
O           0.43267710318836   -0.63219515630901    2.33242329972170
H           0.34980689054303    0.98866368772203    2.05193639121535
H          -0.22141310303938   -0.78998880358227    1.62992862164558
H           1.25493904641416   -0.97948218278283    1.95999438354127
O           0.43990690465966   -3.17290567829054   -0.67778885673766
H          -0.19210731852225   -2.74477714319863   -1.28831603495488
H           1.55572450761054   -2.11106344232387   -0.02678455112664
H          -0.09862048696298   -3.51969648358030    0.03709771037534
O           1.62728536770082    0.94907797915068   -0.51648830936224
H           0.54821842820918    0.59393525288958   -1.47253960611497
H           1.18958862532877    1.38412723856443    0.24284837425478
H           1.90867971962599    0.06753877716064   -0.18921043372547
N          -1.77679187110179    2.37553847001702   -0.27935686199329
H          -1.23490792843649    2.88843324966544   -0.96337300551156
H          -1.15376690056177    2.10586403374863    0.47944512193733
H          -2.49346968837206    2.98537255791968    0.09221818528824
