    26
        -50.45567414  Gyration_radius:  2.46088762325 Dipole_moment: 5.095
 S           0.10832494020200    1.92691360364705   -0.25010462874236
O          -0.50759983240537    1.72418253616421    1.14860700849631
O           0.32397689425445    0.63324215781572   -0.85042479674708
O          -0.70747343439895    2.81376414891426   -1.02181175483481
O           1.46217583073773    2.57935957764455    0.04341533031953
H           1.96180007856915    1.86422495451451    0.61946171659240
O           1.39820309310367   -1.97085905782168    0.93810354259522
H           1.57524040071076   -2.86830564855716    1.22382345999113
O          -2.33676132166717   -1.25981920422205   -0.70183177785809
H          -3.27220939310355   -1.43517231979017   -0.58678043198073
O          -2.25579411357360    0.95577268519875   -2.17277818632151
H          -2.28124389397328   -0.42302180925403   -1.22731864956037
H          -1.80706002350938    1.71054205856147   -1.74330302353561
H          -1.73723318407421    0.77097177560024   -2.95899840255493
O          -0.94480777955990   -0.72192740396445    1.55467719085065
H          -0.69967036989185    0.72831750440191    1.34864895296837
H          -1.48113679057549   -0.95483142215399    0.76640161244838
H          -0.08224431404025   -1.16545968426662    1.42614299079401
O           0.28765293275135   -1.96111718762467   -1.44569011067362
H           1.07695295317451   -2.03413457538685   -0.00219157388489
H          -0.66221573710396   -2.06346555636208   -1.29493635393636
H           0.41318550213806   -0.99676411176585   -1.46805484266167
N           2.46860789057143    0.73470045330227    1.50252065812235
H           2.06634883774318    0.86162589671765    2.42259255757625
H           3.47659475342259    0.71626187898873    1.58744333839460
H           2.15638609049727   -0.16500127030342    1.14238617413878
