    26
        -50.44772978  Gyration_radius:  2.51298330321 Dipole_moment: 2.774
 S           1.21701804637215   -1.69163557704244    0.35050718411895
O           2.36509537885335   -0.77571353528768    0.23322213856565
O           0.76814727458293   -1.81287456854301    1.71716963580481
O           0.16743953731966   -1.36314896154341   -0.58748885437910
O           1.77925140490990   -3.10657858490124   -0.07605131897479
H           2.39410896839631   -3.27303048496242    0.63034012145934
O          -0.51726744081155    1.89594900265898    0.90199978391132
H          -0.67051172773187    2.62007737250325    1.51094567660315
O           1.42169259874719    2.03228584403859   -2.33966179608756
H           1.23988788803832    2.92011122725485   -2.65144724387101
O           1.90377318151934    1.62497707425174    0.12996294463944
H           2.14289482403212    0.56302119231811    0.19834167263224
H           1.84093435100209    1.82089559628827   -0.87516849459618
H           0.95137627048887    1.73519373661521    0.49304337781445
O          -1.28886109029739   -0.18696840377083    2.10313977295349
H          -1.94158557078308   -0.60980497260681    1.49565844245272
H          -0.52612914896231   -0.80313049288271    2.10192937848467
H          -0.83209646274957    1.04838908867851    1.39906038571044
O          -0.82174986869507    0.86576461732983   -1.70440336882980
H          -1.02444838875129    1.31162580066285   -0.87026417342737
H           0.54413110271865    1.56032004552006   -2.27884753919496
H          -0.50220665496622   -0.01794275618385   -1.43882333565709
N          -2.64071311299037   -1.44364711645356    0.12259264699593
H          -3.16435961892494   -0.95026692839864   -0.58985137865425
H          -3.09374851921225   -2.33503556319027    0.27835796850791
H          -1.71207320980538   -1.62883265650771   -0.25426363415011
