    26
        -50.45567450  Gyration_radius:  2.46074885686 Dipole_moment: 5.094
 S          -0.77522441062236    0.92301815410095   -1.52842658179358
O          -1.88050236712371   -0.01327119099603   -1.00115011345658
O           0.41171487901639    0.72909149412174   -0.73222709651734
O          -0.59079160689413    0.72186075519190   -2.93306426557144
O          -1.33483466832540    2.32452642001531   -1.26759615516707
H          -1.44972418521753    2.35619973336921   -0.22941121748787
O           1.19526237429865   -2.43145480826757   -0.43705896720011
H           1.16200789195918   -3.35926636239750   -0.67595544710607
O           0.24984538068536    0.25558714092316    2.56944531725044
H           0.47229605896407   -0.00999672569521    3.46296626175386
O           1.31362476126969   -1.15425788723145   -2.76814805865663
H           1.21485748099780   -1.93285761973817   -1.29172197208974
H           0.56816492257025   -0.54433546547808   -2.93478833632746
H           2.09572827586661   -0.59781691369767   -2.76272115173611
O          -0.97871175435038   -1.46353093329196    0.84846398289639
H          -0.61871057493983   -0.84457878895965    1.51540168816690
H          -1.54333201905987   -0.62340593516280   -0.23736449071550
H          -0.19670096232004   -1.86473673363475    0.41155854622821
O           2.25802296056154   -0.21414634100479    0.93762405824516
H           1.07967923676731    0.14824516643171    2.02998211321920
H           2.15933165061621   -1.13358375439043    0.65421983110848
H           1.78245546015728    0.28843006869161    0.25388673149481
N          -1.61393362451749    2.15970568552662    1.27046459137275
H          -1.66431176321750    3.03008230436715    1.78379573421137
H          -0.84427106940328    1.60683199528164    1.64269404711824
H          -2.47194235772422    1.64366055191694    1.41913095075138
