    26
        -50.45567453  Gyration_radius:  2.46074062327 Dipole_moment: 5.086
 S          -0.21010169678568   -0.81924891200293   -1.75269523405271
O           1.19450714875873   -1.22895483407109   -1.26677956991290
O          -0.80794088336977    0.04034033362012   -0.76076710735539
O          -0.12966711938611   -0.25101625601803   -3.06349361467964
O          -0.97601438177066   -2.14447774416365   -1.80029142299202
H          -0.95542359931206   -2.47775981314111   -0.80967404676032
O          -0.41916091000015   -0.51861358101512    2.50611251063616
H          -0.37207988088626   -0.38333160431136    3.45364616271301
O           1.18478088812699    2.47252033571828    0.13313893134097
H           1.93980158457967    3.05555252262843    0.03832084187321
O           0.16968431577181    2.30462907207644   -2.32038966718229
H           0.80338267768232    2.37429203309755   -0.77480898212925
H           0.15284199406795    1.40036214285948   -2.69118342031335
H          -0.74995480894841    2.57675803321630   -2.28164331365542
O          -1.24872456203489    1.66638885073395    1.30022130750969
H          -0.83310724215742    0.30299483616453    2.12559003416325
H          -0.45736743968535    2.20150799150608    1.14903981961549
H          -1.33395821614292    1.14773328307527    0.48173377483972
O           1.73451431123466   -0.06307095237732    0.89849597686431
H           1.57781797459574    0.87484891543742    0.65543253248151
H           1.00933492331125   -0.30065657684881    1.51086167906381
H           1.44844271814535   -0.76752865797451   -0.37711176715861
N          -0.73503929692950   -2.81272683728279    0.65722923218171
H          -1.39994128444197   -3.48430928330193    1.01852169479543
H          -0.78376522631950   -1.96904790460516    1.22515963941292
H           0.19713803185326   -3.19718539297976    0.74533401870783
