    26
        -50.45567425  Gyration_radius:  2.46071206178 Dipole_moment: 5.098
 S          -1.84313638872933   -0.14132592921008   -0.60932420719160
O          -1.20033127503142    0.95510756777378   -1.48195165310958
O          -0.86386030092158   -0.60563597896035    0.34248927680445
O          -3.05710743353829    0.34366576901707   -0.02748099432879
O          -2.14905731047822   -1.26251989079863   -1.60634738553028
H          -1.20861992107169   -1.52515509269938   -1.97995875751307
O           2.34342553328777   -0.99438257670637   -0.48860279083571
H           3.29650282321168   -1.07415740884603   -0.42797890299126
O           0.57633624455954    1.86013229578484    1.93567293991652
H           0.65822192610358    2.76429746958063    2.24354952787434
O          -2.00288304924748    1.28632171794032    2.24747411187408
H          -0.38309943831533    1.63214127785801    2.01914028192724
H          -2.46934182818440    1.05574777687018    1.42002346490431
H          -2.06735975276741    0.50253394570146    2.79768064965312
O           1.13561061978310    1.44160112648041   -0.67787170722126
H           0.97535037494112    1.63306999893488    0.27127467981811
H           1.60284781868198    0.58210042554616   -0.69747119378703
H          -0.23768718835619    1.17906096902534   -1.17898393672836
O           1.27161125510941   -0.86925707401624    1.90969729512830
H           1.99713865378619   -1.05531034725946    0.44285743524547
H           1.29978066696734    0.06367442989912    2.16325139046708
H           0.39844018279398   -0.96670091414576    1.49220872986245
N           0.22941424105421   -1.68921062834514   -2.44590678011779
H           0.41634672747207   -0.96205925626929   -3.12473283002998
H           0.41008805079419   -2.58819612312781   -2.87337350470482
H           0.87136875808512   -1.56554356002895   -1.66533512937539
