    26
        -50.44849469  Gyration_radius:  2.48587654126 Dipole_moment: 4.265
 S           0.76186590673667    0.52943121107063    1.73657683764395
O          -0.17523674147889    1.45425737103144    1.07177746879785
O           0.36427738297587    0.22317653711673    3.08010501133239
O           1.04122741881006   -0.61010912951011    0.88604783599171
O           2.13379711188890    1.32760888163750    1.84592478093042
H           2.09941095885449    1.67376553946448    2.73171078635247
O          -0.99448990022509   -1.01158555299149   -1.95648830013004
H          -1.82271059012105   -1.16293285459671   -2.41359689779185
O           1.93312765950418    1.47920010528629   -2.30911826043967
H           2.07323687818790    1.54755952362631   -3.25489906841564
O          -0.42862506520292    1.41164007654978   -1.36101549356739
H          -0.31355038821878    1.44651726553904   -0.27430325260654
H           0.50931589214022    1.55839554411605   -1.74750080636865
H          -0.68688796172189    0.44895169930627   -1.59921181697950
O          -1.12070848251773   -2.08580689805314    0.34892612714307
H          -0.23581731737368   -1.79930940961141    0.63960130750827
H          -1.72493632880365   -1.56802447821528    0.93656163119547
H          -1.07520011121422   -1.48836355201818   -1.05671403275646
O           1.88421538827043   -1.02647124197040   -1.61138765238951
H           1.75462951472449   -0.93970799744514   -0.64648734894711
H           1.03756461216170   -1.34630924717725   -1.94629313566452
H           2.09895137311591    0.52683781213984   -2.05912976340909
N          -2.26196386574081   -0.35462029421804    2.04847162908855
H          -1.39333990962633   -0.22747664339816    2.56605522778254
H          -2.99421647397669   -0.54916955229118    2.72121439704439
H          -2.46393696114665    0.54254530461038    1.62317278865484
