    26
        -50.44772982  Gyration_radius:  2.51298138818 Dipole_moment: 2.774
 S          -1.44743307312052   -1.46834226280447    0.46332174656979
O          -1.86213544734694   -1.58768577658401   -0.91423431801901
O          -0.31347993656859   -2.35759367558352    0.77005008042992
O          -1.19688150091097   -0.10947136128669    0.88764042383000
O          -2.63988252033777   -2.00746059932497    1.35075635331941
H          -2.78576290201014   -2.85897129889114    0.95279319198554
O           1.59449890948470    0.38104513839186   -1.41005772392703
H           2.17207933911009    0.38636070245438   -2.17493281550334
O           2.60756353942365   -0.15738159466339    2.19120966911598
H           3.47797455724699    0.24257329487421    2.22248425968696
O           1.93369887734280   -1.58337767770904    0.18887156524656
H           0.94326472976568   -1.96657168516400    0.43733057088639
H           1.79465220447008   -0.83257834754155   -0.49523703825487
H           2.26388466558853   -1.12133074299123    1.04335578814163
O           0.93286466593411    1.50846406755858    1.08779739064542
H           1.96583897236565    0.56288296662520    1.93445266532438
H           1.19697660153630    1.43808256233080    0.15992415338431
H           0.10098290990928    1.00027238161693    1.14532863956484
O          -0.75862430350704    0.36493771907564   -2.32599680239343
H          -1.20598592042659    1.13741219156918   -1.90526961638184
H           0.63546740467286    0.37224279581835   -1.79059845885146
H          -1.20223758576417   -0.41434247393147   -1.92932089743165
N          -1.94382982286582    2.18768904323568   -0.71283595021229
H          -2.92082623168998    2.42861855706074   -0.81992952874738
H          -1.46240020372211    3.00051967418303   -0.34856787619215
H          -1.88026792777584    1.45400643199438   -0.00833548153490
