    26
        -50.44849471  Gyration_radius:  2.48588170283 Dipole_moment: 4.263
 S          -0.41799306321780   -1.57503645530268   -1.10499053433682
O          -1.50253993103755   -2.51183905677541   -1.04977115495203
O          -0.84704633228040   -0.24857513415884   -1.58662643566204
O           0.36726624165818   -1.44678884115036    0.10618662741247
O           0.58820007127453   -2.11873030175322   -2.21101760750679
H           0.02715856632699   -2.67219703752743   -2.74425542463686
O           2.82575256238665    1.26785423993969   -1.28961337838424
H           3.48405028815197    1.95176590247562   -1.15646496674755
O           0.38366905083464    1.70716759913242    1.66696139212188
H          -0.01569114004144    2.45089987818743    2.11992319102173
O           2.52424740556183   -0.09432168898890    0.90614229154215
H           1.85459781938555   -0.74618523062223    0.61979779462187
H           2.86976655196297    0.66405837902593   -0.49558378974176
H           2.04847715998412    0.50747742722548    1.49157301901354
O          -0.99396686679217   -0.38088637928818    2.14351125041357
H          -0.17629691136669    0.88954503731328    1.91454115030540
H          -1.85547892400232   -0.34210183372914    1.65900552414768
H          -0.45968848104673   -0.97944765982530    1.59043147239171
O           0.36027364694670    1.76217969637072   -0.89101711985845
H          -0.17845169485873    0.86823658380980   -1.21699890580685
H           0.34325544050522    1.75927690786118    0.13363983945387
H           1.33825940948809    1.61403797541237   -1.15960883121076
N          -3.00591265397191   -0.51167253918678    0.37623212648948
H          -2.60729290844059   -1.33216723677965   -0.07811682637652
H          -2.97456654278805    0.22903801443596   -0.31437337590338
H          -3.98004875462112   -0.71158824610016    0.57049261219263
