    26
        -50.44849472  Gyration_radius:  2.48584145104 Dipole_moment: 4.264
 S          -0.05458784620770    0.31704314032737   -1.94234557628532
O           1.03120716321964   -0.52130641596226   -1.40043222679312
O          -0.77934258219990   -0.34042124754473   -2.99087207831720
O          -0.85781757800867    0.86584074315326   -0.86825997111935
O           0.67146958611702    1.56387331909282   -2.61285838398272
H           0.71348295069599    1.30856195559947   -3.52859105678030
O           2.15203695628550    2.27000910506416    1.21246729232158
H           2.52210384014093    2.60876613891123    2.02925406399495
O          -0.33160863791782   -0.45676484010420    2.34988945164482
H          -0.33158059231763   -1.14932921796399    3.01182982004727
O           1.77290859072291   -0.22960492770446    0.91244846332742
H           1.45649359209983   -0.35936886361611   -0.12609828419147
H           2.04017075117331    0.75571975340853    1.00327840642548
H           0.93720136114815   -0.35213187786511    1.49276452621851
O          -2.09172065386445   -1.00111545670644    0.59188593240661
H          -1.79356836746775   -1.75893431375543    0.03037776020593
H          -1.07313685750412   -0.69530878716597    1.68909554987475
H          -1.91001809305583   -0.22735052673021    0.02805820049405
O          -0.44505307291289    2.26773926118243    1.36445753320067
H          -0.67406317089443    1.92274383373844    0.47906993092680
H          -0.64327569571153    1.54332016994596    1.97044172387591
H           1.17065523357896    2.45173770634353    1.24113266862966
N          -1.00514604368913   -2.62154446119178   -1.24713085362121
H          -1.04779545705653   -1.90066024174842   -1.96619891776306
H          -1.40932800120788   -3.46582830998925   -1.63502834262774
H          -0.01968737516688   -2.79568563872045   -1.08863562211427
