    26
        -50.44849475  Gyration_radius:  2.48586193179 Dipole_moment: 4.262
 S           0.78236028700426   -1.08515775420806   -1.44440106596985
O           0.18870371073886   -2.01655092921169   -2.35931292871941
O           0.40694265560637    0.30978478725687   -1.74211954597091
O           0.59115465337928   -1.37394485100347   -0.03724171751030
O           2.35316628823752   -1.15860965722377   -1.68608241833721
H           2.40853025013592   -1.50302429675982   -2.57141882989258
O           2.55925231550497    1.74454975967995    1.28893655899474
H           2.78709624086828    2.35737380673728    1.98988278186850
O          -1.18714434709469    1.00482076187705    1.84976309941630
H          -1.95872350334906    1.52132477346112    2.08574578393514
O           1.34949930910123   -0.32621119625532    2.29708191664001
H           0.47726175993700    0.00767912580448    2.53997773192255
H           1.19870263862033   -0.85414272049084    1.48846389228199
H           2.26514493550076    0.89743903822125    1.72811328618216
O          -1.95303073559849   -1.16118064017181    0.75117988418120
H          -2.30781887144092   -0.98056067934803   -0.15432127225910
H          -1.05794002375362   -1.50151808916600    0.57064499424269
H          -1.53976701961775    0.13401691437756    1.44885165483982
O           0.34832008641563    1.97601731584150    0.04800756277827
H          -0.29149086569695    1.60397603115380    0.75679117407470
H           1.28037096338284    1.96858895745400    0.47431601125175
H           0.38317790442926    1.24117555357624   -0.76100144663728
N          -2.33376295223592   -0.71704597300897   -1.86533678145988
H          -1.54129050094405   -1.30431887222447   -2.12162079619133
H          -2.08348988498863    0.22327132685987   -2.14769353622995
H          -3.12522527415177   -1.00775253323464   -2.42720600342997
