    26
        -50.44849476  Gyration_radius:  2.48583898593 Dipole_moment: 4.262
 S           0.21905157663386   -0.84658232619450    1.76404358464335
O          -0.63703152250645   -1.72497485400938    2.50743238325909
O           0.81914440571013   -1.50891089000025    0.59078880967137
O          -0.35845592164489    0.42828771652450    1.38815351759737
O           1.44140610353705   -0.49658721757761    2.72038501657848
H           1.43746307349111   -1.22483683373128    3.33302447296268
O           2.80691440643382    1.76965750052816   -0.49324324215112
H           3.22521504609812    2.38053820117086   -1.10203884163692
O          -0.65618451417696    1.08913999955737   -2.05505808686896
H          -0.98952482016080    0.93653752392442   -2.94015740480170
O           1.44936248036879   -0.19551025675058   -1.37449543422359
H           1.18195655731149   -0.78940369428789   -0.49628693734794
H           0.59913017602091    0.29524914831706   -1.66852881995975
H           2.09342543233555    0.52764417947166   -1.03868949373446
O          -2.35448068907179    0.20819389508211   -0.37444454100420
H          -1.82925661859700    0.42313166554376    0.41774613908977
H          -1.38119490855944    0.75644302741912   -1.41700948657840
H          -2.35783728159517   -0.78096587873190   -0.37591038296363
O           0.43844828363755    2.64459693487280    0.13337741250650
H           0.15042297867308    1.94689035868464    0.75432487588297
H           1.98947176003928    2.22335196223958   -0.14261613847223
H          -0.08425721027699    2.49617487910544   -0.66414084685010
N          -1.90901829396089   -2.40679024755280    0.01493102292640
H          -1.09792383497208   -2.74912585752468   -0.48656638890382
H          -2.59780239314788   -3.14970018905125    0.03175421254783
H          -1.59844426162268   -2.25244875702558    0.97322461783413
