    26
        -50.44849479  Gyration_radius:  2.48581968078 Dipole_moment: 4.259
 S           0.30982999505008   -1.75544047925352    0.83544698019881
O           0.34996774774521   -0.55617747533826    1.69304709461426
O          -0.60312190510999   -2.74665097268976    1.32646684555455
O           0.14655580736336   -1.38086349473394   -0.55492663114791
O           1.76316437565971   -2.39460387902651    0.93794279163935
H           1.64568034205298   -3.06600821167763    1.60203583707150
O           3.05383753032557    1.24419313248854   -0.61432496261139
H           3.50751715516259    1.98542588290830   -1.01869523799164
O          -0.68830644257715    1.97253068688876   -1.21497363077512
H          -1.24891747935975    2.74851679520801   -1.17809426308688
O           0.92873346832297    1.61962892452047    0.73644574161762
H           0.26152740099476    1.77796397345948   -0.02503145061253
H           0.68047625074204    0.64945185901925    1.17563594480983
H           1.84450393003016    1.50031239352166    0.29191545881377
O          -2.14980541517539   -0.10601666835564   -1.04559483763807
H          -1.31541168981171    1.16693298858020   -1.18158014702019
H          -1.41440204497931   -0.74496958360864   -1.06870732648542
H          -2.50053176030228   -0.20568734419735   -0.12609649084526
O           1.35661199901477    0.23007627327734   -2.30516532055462
H           0.99419045841592   -0.50472270960824   -1.77225906246261
H           0.64582573201826    0.88176594703977   -2.34226948120591
H           2.55227381951570    0.77898927240360   -1.34166226339244
N          -2.57390533547478   -0.65746141758446    1.54370315554512
H          -2.01582137195577   -1.50882555886645    1.49545392503597
H          -3.45578060343247   -0.89345971891453    1.98326958184517
H          -2.07469198424086   -0.03490060545887    2.16801772908622
