    26
        -50.44849468  Gyration_radius:  2.48588861722 Dipole_moment: 4.264
 S           0.05806844048374   -0.52449764593475   -1.89679518752884
O           0.96693506218881   -1.20384340027864   -0.95449241032366
O          -0.73706415230978   -1.45026012620945   -2.65022017586203
O          -0.67086074978772    0.53380077211346   -1.22698150071910
O           1.00732617518774    0.20658057977449   -2.94350104874047
H           1.03221219316388   -0.41315092969046   -3.66525981900432
O           2.47381313600537    2.23431854680910    0.38258374935579
H           2.87207945158487    2.82772509383863    1.02137737280138
O          -0.47453493379661    0.62584866297018    2.28535776926680
H          -0.61249036020652    0.28287739481043    3.16918222591803
O           1.67945904625102   -0.07672023068669    1.09641869716514
H           0.81826731825128    0.17749199267277    1.59033845059525
H           1.37620915743356   -0.58411519068444    0.17654920805212
H           2.10942570496189    0.80584196738114    0.80172197995095
O          -2.24963784615636   -0.34751950504012    0.74052079660527
H          -1.92138022674341    0.08269464112517   -0.06988563142510
H          -2.06956790650148   -1.30527511025309    0.57086356823710
H          -1.22626146550692    0.24115149138218    1.71062473477906
O          -0.08841670734025    2.66871622834423    0.26450255278415
H          -0.42634357525191    2.30324233977270    1.09124216782405
H           1.53780923267656    2.55009697383588    0.23708996720360
H          -0.34719583919290    2.02042863260360   -0.41966606126003
N          -1.40385153081242   -2.72819969958738   -0.15668705398750
H          -1.93522806092138   -3.58971322600223   -0.20220769186998
H          -0.46802345523442   -2.95890278532033    0.15570187121772
H          -1.30074809842199   -2.37861746774508   -1.10837853103365
