    26
        -50.44849478  Gyration_radius:  2.48584137567 Dipole_moment: 4.259
 S           0.50081314549647    1.32681548647362   -1.36545763362548
O           0.47709687116294    2.76076378199385   -1.34806092508083
O           1.56360686722191    0.77314217530155   -0.50564410190661
O          -0.76352488873119    0.67159738661412   -1.09673442270416
O           0.89524699928700    0.90309562792026   -2.84741331271621
H           1.33693291914129    1.68082729749115   -3.17237098350755
O           0.60092324324111   -2.98826111869086   -1.40052993703423
H           0.51562388195331   -3.93113327982119   -1.25046727637157
O          -0.92162058875345   -1.37738846986162    1.75902006065515
H          -0.89168032279002   -1.55488955546536    2.69997729565770
O           1.30334539935126   -1.44299342053632    0.49701779666404
H           1.13761281998089   -2.08935445341815   -0.28093116289149
H           1.43408058491621   -0.45642173859424    0.04379135412576
H           0.42867558290180   -1.40921121182192    1.02981452717200
O          -1.69283689533857   -1.82816913432804   -0.99926815675901
H          -1.80235595270743   -1.85209101438045   -0.04076165977740
H          -1.45935169154592   -0.90075629748684   -1.20100647124160
H          -0.32367936459578   -2.61155057968908   -1.41312141069624
O          -1.63709522350618    1.04030976833270    1.40139180336433
H          -1.24704844966568   -0.41405871825041    1.66175947460362
H          -0.90656249184559    1.65627909563415    1.65700314764899
H          -1.57367391982002    1.01850771364660    0.42921650521900
N           0.53135027406843    2.61206815714076    1.52775715536801
H           1.39245155058580    2.09046660835220    1.64180156891698
H           0.62802389395327    3.48260738569295    2.03711934632936
H           0.47364575603773    2.83979850774607    0.53609743858681
