    26
        -50.44849480  Gyration_radius:  2.48580522541 Dipole_moment: 4.260
 S           0.73529671682303   -1.31784691090847   -1.26442986593168
O           0.34396996452788   -2.66455437052333   -1.56499819311523
O          -0.23170423733928   -0.32643697711281   -1.77169643646840
O           1.05833737888969   -1.04931521515770    0.12252137685784
O           2.07745664842937   -1.04939831616302   -2.07544362239811
H           2.02858466606761   -1.69519463265801   -2.77267905473428
O           1.88793177323259    2.74641620227861   -0.37909600399034
H           2.02924218713906    3.62801966622033   -0.03042558487394
O          -0.94965001629296    1.30144464123357    1.80128726469695
H          -1.76985028195593    1.63569333318684    2.16645720564790
O           1.92645818092447    1.02021800116077    1.56684286744933
H           2.08661725850076    2.10625599070468    0.36098924307254
H           1.09272170643779    1.17037737493041    2.02904099364438
H           1.79017088161831    0.19012166270326    1.06921353866515
O          -1.04638632072895   -1.24287854694333    1.75708842380025
H          -1.67127577422341   -1.55075280758257    1.05484125894251
H          -0.17364382983766   -1.36686177906145    1.34167705199479
H          -1.01688882462839    0.28281545716458    1.83689153530128
O          -0.47378761844262    1.83669175133430   -0.65520904952656
H           0.45986981019349    2.25944363972622   -0.64900371733265
H          -0.36444678924974    0.87717987678625   -1.16811050264395
H          -0.69647287774677    1.62486892294975    0.32236007649107
N          -2.25607471163066   -2.02309018217365   -0.50483369311126
H          -2.98317361053055   -2.72218420055481   -0.60080693816959
H          -1.39447736777820   -2.42133324977091   -0.87587413742814
H          -2.48882494239967   -1.24969934177667   -1.11660403683774
