    26
        -50.44849477  Gyration_radius:  2.48579647719 Dipole_moment: 4.258
 S           0.62578117869769   -1.62239027667379    0.92254071472686
O          -0.08224869595734   -2.77324007715023    1.40351499739615
O           0.69808938013861   -1.58358048009267   -0.55008606370242
O           0.18178325500633   -0.34511153968159    1.44359784784343
O           2.13044437904193   -1.78444228337636    1.41341988184038
H           2.20002607722753   -2.72287752497551    1.55522122396312
O           2.75761233597875    1.82741712379986   -0.55392857589113
H           3.05665506042768    2.67086614070152   -0.89736247765071
O          -1.08516572531326    1.97125925385441   -0.88195607285429
H          -1.70452669113537    2.28462311878539   -1.54225483555803
O           0.87973831814168    0.55971166954840   -1.71513361407837
H           1.70914510358767    1.02300831592489   -1.33059788047584
H           0.81064846517707   -0.40405191467230   -1.20288514723474
H           0.07551095298793    1.11534666993771   -1.40766268402388
O          -2.28006322640184    0.32451027589307    0.64958212630096
H          -1.50084081709817    0.11619626821004    1.19642239447861
H          -1.61337683493991    1.34603774006753   -0.27084931851117
H          -2.45032522893466   -0.52602474811185    0.17415840187430
O           0.89580008551366    2.21671284716592    1.22097124386240
H           0.70843373875897    1.29458338891728    1.48526674067555
H           2.18338947995351    2.02397360673828    0.23891323751449
H           0.12881078449970    2.48478238877115    0.70024336958687
N          -2.18087989071416   -2.11583161867558   -0.45648709337825
H          -1.55850720055786   -2.46462961805544    0.27124068468121
H          -1.64304933396608   -2.13993858983013   -1.31482300351934
H          -2.94288496010932   -2.77691011701744   -0.55106609786885
