    26
        -50.44849468  Gyration_radius:  2.48588349453 Dipole_moment: 4.259
 S          -0.81291756564279    0.95857157564620    1.51462632612904
O          -0.28372206675891   -0.39823995651981    1.74841458158456
O          -0.27133575132235    1.92007924264899    2.43060709053921
O          -0.72299842029658    1.30453929976756    0.11027829550994
O          -2.36894687894818    0.86347185213235    1.83249462586548
H          -2.41416918904857    1.17572806562923    2.73032625640896
O          -2.43442302923845   -1.95853163429675   -1.22201463748008
H          -2.63552584443816   -2.57173027661807   -1.93077812333817
O           1.18690444149793   -0.82809999077087   -1.93573807691329
H           1.99339424093038   -1.25670886302123   -2.22498176535290
O          -1.48914009809338    0.25071819265950   -2.21893568556616
H          -0.60129711232069    0.01359318984884   -2.51352433835661
H          -2.24864556356691   -1.07437559754201   -1.64710079387172
H          -1.35141004810578    0.76861116863170   -1.40157480415058
O           1.78644527050742    1.37372175517441   -0.80509659224941
H           2.20312315303389    1.20612683156408    0.07619490687365
H           1.47029379080996    0.06257235472404   -1.52391074042989
H           0.87198708547843    1.61594887329075   -0.57123121133474
O          -0.15126697522921   -1.99964813182025   -0.09600456358661
H           0.41158534268456   -1.54527446275402   -0.82178712557109
H          -0.21774241551783   -1.29474932779581    0.73758506782143
H          -1.09981641478884   -2.07451498307324   -0.47686535045937
N           2.34183314317953    0.90145489039073    1.77509525576742
H           3.12714743512393    1.25666410366687    2.30777144783317
H           2.20275096888602   -0.06690363422850    2.03871826378249
H           1.50789250117886    1.39697544266393    2.08743169054866
