    26
        -50.44849477  Gyration_radius:  2.48580196534 Dipole_moment: 4.262
 S          -0.24675554753723    0.87543870134426   -1.74611542302278
O          -1.37228625033725    0.88660733201623   -0.79299801634771
O           0.09306286672148    2.19148894747158   -2.20392575226029
O           0.85124604760683    0.08487367408960   -1.22700307561274
O          -0.78043472552871    0.08223558876245   -3.01783185869098
H          -1.05383885481867    0.78508710516889   -3.59814651146048
O           0.66064874430080   -0.88403745837092    2.15000434298361
H           0.62753803027088   -0.72846986517685    3.09472835581585
O          -1.29802795859006   -3.07275658190734   -0.35370012322777
H          -1.41704941780435   -3.90679479893734    0.10346764356276
O          -1.56991028868004   -0.87160340444099    0.89638065732630
H          -1.58045160055185   -1.75887379124612    0.38344032493437
H          -0.68982631563360   -0.85697101115515    1.42113652761975
H          -1.49671435168790   -0.08791864796176    0.13732009540966
O           1.20857077624295   -2.38123239910862   -0.27181157395895
H           1.34643587675323   -2.10991659226759    0.64398134157394
H          -0.31427567746079   -2.93507424633423   -0.45499588380083
H           1.17814518527594   -1.54569000268280   -0.77803478529816
O           1.87835465299232    1.05751609911090    1.03981921860740
H           1.77513544317893    0.72951266851832    0.12802040539715
H           1.31191252722429    1.86837746392752    1.04862908044763
H           1.18688880824003   -0.10434906727832    1.75182579387168
N           0.11640561882858    3.01929670389427    0.55466879619054
H           0.23330013315681    4.00800495479368    0.74285221367383
H          -0.83357451522660    2.76820800442212    0.80175058651121
H           0.18550081306612    2.88704062334616   -0.45346235024820
