    26
        -50.44849477  Gyration_radius:  2.48584809407 Dipole_moment: 4.259
 S           1.14980036636068   -1.05108217123489   -1.20384514592105
O           1.73843898073108   -0.52384548679692    0.04155095579361
O           1.33806275328578   -2.46641642028767   -1.33936385563023
O          -0.21039511361688   -0.57734698333451   -1.36362766064265
O           1.97919557977675   -0.37383574925886   -2.38059325521632
H           2.62042958284678   -1.04449489005593   -2.59188859642914
O          -1.68595262577713    0.99885732973929    1.41439374984769
H          -2.02112945187732    1.03710107350658    2.31105143179279
O           0.60405569874851    3.20887245872682   -0.76933106778109
H           0.32933338295883    4.10504061664420   -0.56877722725844
O           0.80594271616282    1.48051260136599    1.08911042434779
H           1.23719614038612    0.59082436908402    0.62204071289025
H           0.83392840511703    2.21434317742661    0.37413533274726
H          -0.18561902506482    1.27786498029464    1.24992398106875
O          -1.47834309655719    1.77085454154107   -1.37242533575275
H          -1.92570195778346    1.64117795832855   -0.52722731163395
H          -0.18673133159534    2.74445055504147   -1.16425088724570
H          -1.05125274839674    0.91268849251616   -1.56334972155589
O          -1.85320355772603   -1.40008268905802    0.57645654287524
H          -1.80601189836426    0.03215920231888    1.10706946523707
H          -1.45047429378668   -1.22816640087345   -0.29410206624773
H          -1.17843386913368   -1.96818881521463    1.02407902825329
N           0.33717949914771   -2.74039915836997    1.34737712208286
H           0.67275090935268   -2.82365693519880    0.38869369820776
H           0.37540217517271   -3.66203759672843    1.76662452963548
H           1.01153276962674   -2.15519407012272    1.82627517653724
