    26
        -50.45379114  Gyration_radius:  2.52436968383 Dipole_moment: 3.725
 S           0.64846877783812    0.07223679954570   -1.25229318145422
O          -0.50086985327766   -0.84965501858490   -1.02738084642174
O           0.17217892905651    1.44560379319505   -1.29057401112860
O           1.68026584022164   -0.13942222625285   -0.26440301875680
O           1.21545066521093   -0.30926520569151   -2.63882738865922
H           0.45758573409898   -0.07424379657449   -3.25192334380726
O          -0.72743945278129   -2.75416190597850    1.88326005914779
H          -0.58642204027076   -3.29441734965975    1.10299708429169
O          -0.22089516175494    1.07916160700911    2.48546454323700
H          -0.68285314843927    1.71702295900065    3.03187712794323
O           1.39794635598410   -1.25357795053304    2.15492294861821
H           1.61584045776994   -0.94717605512453    1.25173992559891
H           1.05049105614801   -0.47625424894439    2.60895626377991
H           0.14941337928237   -2.32551258872115    2.08361726853876
O          -1.68901023163835   -0.54369739119613    1.07410555362020
H          -1.16196258490560    0.12466968827798    1.61368114900163
H          -1.17178600816736   -0.63078908767065    0.05167476483085
H          -1.45848182634695   -1.46251382685070    1.47512890630824
O           1.35066456420612    2.35934472679026    0.86816154674984
H           2.11645429757210    1.77971238255510    0.79310101737031
H           0.87068468502810    2.21182544312307    0.02331673748275
H           0.38490614453293    1.61067193070814    1.88568711566387
N          -0.99769409566621    0.54111458035774   -3.69533082849956
H          -1.23516234951003    1.01969913997415   -4.55451211372062
H          -0.94517017318205    1.21762985274036   -2.93798977880362
H          -1.73260397101279   -0.11800626149415   -3.47445750093384
