    26
        -50.45379112  Gyration_radius:  2.5243918069 Dipole_moment: 3.725
 S           0.20483635750025   -0.85439291731283   -1.10554981194761
O           1.33230351723226   -0.45126046530227   -0.21807295463711
O          -0.66183445313197   -1.78557295935912   -0.40110181427773
O          -0.49875580056903    0.30403028122531   -1.60389097584449
O           0.86325604391360   -1.57719243458613   -2.30284685248249
H           1.26828434137677   -2.38521633603872   -1.86856896273922
O           1.68203105222519    2.84718954789320    0.85119040281633
H           2.38665316968129    2.57797421259004    0.25823206029945
O          -1.83485209494418    1.27803705421652    1.54738761627126
H          -2.37809183109674    1.22602085925225    2.33544406124531
O           0.69276464825326    0.71464365352352    1.81992729372438
H           0.98101538180464    0.09675573737727    0.89503944025044
H           1.14874151501518    1.60833409166895    1.59265380439915
H          -0.29689175902290    0.89409145171198    1.75628996176301
O          -2.82594765740033   -0.31022948613415   -0.24689856018037
H          -2.66399803223782    0.15629135667133   -1.07404421698829
H          -2.13735648581476   -1.01145298147078   -0.24330813167314
H          -2.25725154290221    0.66277790685941    0.87488120097302
O          -0.53885269442960    2.75646399944817   -0.52794761000189
H          -0.48548731388724    1.93189177618432   -1.05171474475094
H          -1.20176720644285    2.58242260286248    0.15128191761294
H           0.87863013971492    2.98678007027420    0.27863952690980
N           1.59797397154801   -3.45580793961502   -0.66944210964617
H           0.71177698109610   -3.23271027214002   -0.22349784935529
H           2.34092090345161   -3.09927792194404   -0.08272026988959
H           1.69189884906157   -4.46059088786180   -0.74136242185325
