    26
        -50.45379099  Gyration_radius:  2.52428314095 Dipole_moment: 3.725
 S          -0.46702236166184   -0.68505102084825   -1.14271972359048
O          -0.81763433674062   -1.75062077189756   -0.21740960544107
O          -1.09367389736371    0.59120036669142   -0.69624313167487
O           0.95899279643165   -0.52901302374625   -1.30866987048972
O          -1.08876163402821   -0.98615048351646   -2.52564789493529
H          -2.05395259418468   -1.13518262792642   -2.29844765559329
O           0.86681079246916    3.28742120753827    0.32389149388594
H           0.39427502691716    3.46673576667726   -0.49164370080296
O           1.65901778916724   -0.08061574929832    2.15139502428943
H           1.74056379712354   -0.31337478710038    3.07768001527263
O           1.56408970237600   -2.26354567228471    0.75520928737136
H           0.61955775846161   -2.24232406396119    0.48426016782325
H           2.03284397630580   -2.03366379906031   -0.05438935930930
H           1.63973544662392   -0.94819046423120    1.64516347019773
O          -0.37733128273284    1.39863021904594    1.48484846334790
H          -0.76723695501229    0.97212693651871    0.49265685610490
H           0.37784847614435    0.80197221120070    1.78417304719627
H           0.07119259270907    2.26198973236528    1.14999835978357
O           2.52442618518819    1.32823826482673   -0.18076410394829
H           2.01668932508072    0.69345579752929   -0.72522731321618
H           1.61472698028621    2.67574303008803    0.08019056407416
H           2.61828774119986    0.90424652087637    0.68093115053885
N          -3.37272257923203   -1.33096719139946   -1.34143318914907
H          -3.71953159619130   -0.42915994028336   -1.04186464359143
H          -2.78280539857044   -1.70188574748833   -0.60091957792748
H          -4.15838575076590   -1.95201473032058   -1.48501815021246
