    26
        -50.44772980  Gyration_radius:  2.51300083798 Dipole_moment: 2.773
 S           0.82642142266567   -1.43222016978165   -1.31595044192822
O           2.09259621289740   -0.69120900625534   -1.18014431210193
O           0.71857774320791   -2.48876395595291   -0.33817416940997
O          -0.31507132631566   -0.54631493393932   -1.35455253266628
O           0.91001723795828   -2.12544198839155   -2.73459088594421
H           1.62371284450237   -2.73756085417225   -2.59071706699961
O           1.23333533729963    3.10453068234288   -0.68334214786103
H           1.19615423345907    3.95075313343713   -0.23501010066922
O           0.19231981468498    0.69674675026231    2.03796557857610
H           0.37340611201821    0.77623061616905    2.97579579505514
O           2.20642953291818    1.07360147157322    0.51078425851466
H           1.42981604360597    0.88584235423348    1.15315591084680
H           2.19467231717568    0.27715920180223   -0.23436337255568
H           1.94275358140681    1.92272370123271   -0.00111971142999
O          -0.72781340441495   -1.63195328691822    1.71064634323139
H          -0.18089418242211   -0.25668635072887    1.91060930246716
H          -1.59309166010626   -1.50687744392480    1.25289849974859
H          -0.15918492543735   -2.05943402736360    1.03585911148643
O          -0.99093284733012    1.81000495290294   -0.26590511008568
H          -0.86620261424385    1.53301084778662    0.65246325452374
H           0.31262871280610    2.71980173316139   -0.65469199363379
H          -0.83541760238708    1.00054833387479   -0.78953622177466
N          -2.79159804422254   -1.13066079787781    0.03168292784056
H          -3.39065522931863   -1.87465392984172   -0.30256188426319
H          -2.05871662707434   -0.98669151430844   -0.66174956250610
H          -3.34326268278170   -0.28248550055650    0.07054852091118
