    26
        -50.45379113  Gyration_radius:  2.52448510704 Dipole_moment: 3.723
 S           0.08857944510034   -0.90176790290917   -1.08305759562080
O           0.68006274795465    0.46414518066203   -1.16037457916461
O           0.88050944302206   -1.72635577264421   -0.18448298181895
O          -1.30517297623697   -0.83981384366652   -0.71037320514378
O           0.18506252213447   -1.47241851647032   -2.51645109032865
H           1.17607985477236   -1.53183229260391   -2.65692346567055
O          -0.72621834604265    0.33066706788805    2.59994290678382
H          -0.43297491079803    0.30408884756033    3.51216940175347
O          -1.06589281061848    3.24395292861424    0.00846448441875
H          -0.95228026702417    3.25718340900856   -0.94416066975300
O          -0.89225943585329   -2.10053471310855    1.71334506487653
H          -0.79122629434397   -0.62550202388406    2.29865137826626
H          -1.65128996607887   -2.07216972932282    1.12079979511197
H          -0.12497195383211   -2.10415175917075    1.09922477624750
O          -2.54989435169803    1.16191528218027    0.56148715911694
H          -2.20883003728848    0.44203923351583   -0.00638920507959
H          -2.26823096446424    0.93389826021191    1.45579421955340
H          -1.77331059576343    2.56674621060968    0.19202915101479
O           0.73156500099318    1.70197169292599    0.93401495419410
H           0.21584575574333    1.15848867979259    1.60799193155172
H           0.77393375738918    1.08280346376956   -0.03314257404935
H           0.09346484196073    2.45414471582855    0.64201513969062
N           2.76869914849838   -1.46391625925398   -2.26670753307644
H           3.09161713385508   -0.50579221152090   -2.29837039128796
H           3.51328576963144   -2.07046752054937   -2.58497332814876
H           2.54384748898669   -1.68732240746260   -1.30052375343843
