    26
        -50.45379115  Gyration_radius:  2.52442986893 Dipole_moment: 3.724
 S          -1.26428588788239   -0.06623983072651   -0.62539707710171
O          -0.52471910969970   -0.42145402684314   -1.82596100463685
O          -0.89750926408176   -0.99495626652934    0.48115372956760
O          -1.07056263197185    1.30903208566096   -0.22995992274006
O          -2.77332304719516   -0.29528571135055   -0.87005716413707
H          -2.79615784753460   -1.24448718189792   -1.19253484645318
O           0.74013296647094    0.16854645785401    3.32928482577652
H          -0.15146445308066   -0.13202961458327    3.51715192368201
O           2.47786037543145    1.11888699826023   -0.04573690587985
H           3.37944294288865    1.03043037131512   -0.35906975623065
O           0.95930458649374    1.72991395704642   -2.05686561498368
H           0.30366211587375    2.32135399103676   -1.67168719741427
H           1.92595978253383    1.36848135645667   -0.84725045846185
H           0.47052816958838    0.88306969326446   -2.15618592186585
O           0.52056595374993    2.22081879738440    1.72219856387472
H          -0.17075934437717    1.97149319761525    1.07643630597933
H           0.64354834837667    1.04918844642155    2.87330921455927
H           1.34957032006255    2.19201815865392    1.22921341062352
O           1.44050241030503   -0.94645118751970    1.15403532861816
H           1.28157640545731   -0.59640179505177    2.10816920463324
H           0.35653161617331   -1.01914259010284    0.77928841756667
H           1.87248094583447   -0.18375297643819    0.65679506507765
N          -2.20096772731282   -2.68911102257448   -1.69421605625711
H          -1.36685908817325   -2.22602152538957   -2.04603838051643
H          -2.57158315401866   -3.29930528110760   -2.41107911155247
H          -1.93347538390516   -3.24859450085546   -0.89499658174503
