    26
        -50.45379105  Gyration_radius:  2.52434443779 Dipole_moment: 3.723
 S          -0.36696570562786   -0.86323692834339   -1.05542074666944
O          -0.69896379990014   -1.18825800796715    0.36062376691764
O          -1.20043897207067    0.23751438390873   -1.51177224812900
O           1.04511292606602   -0.60157738509300   -1.20705543228965
O          -0.71643251086668   -2.13510945115116   -1.86153390281555
H          -1.71033200725790   -2.19653611592639   -1.74422234273044
O           1.03784227164936    2.42095941441880    0.67066349256861
H           0.83924713382186    3.33500430661688    0.88021080356277
O           1.64882882607332   -0.73677417888313    2.89843580349920
H           1.44316292100351   -1.66231317639456    2.75129688611417
O           2.76668611570725    0.14459134395992    0.70410521270730
H           2.23242426260013   -0.46031697918584    2.13958025328660
H           2.24004595079940   -0.23802322293867   -0.02626177611939
H           2.54064307511717    1.08263673721726    0.71468431805486
O          -0.30114485047449    0.59970430993891    1.96277112077172
H           0.43337264714658    0.11776567182608    2.49826080606370
H           0.17025714722114    1.33884085020104    1.46546845841589
H          -0.55835642829314   -0.21130601861969    1.19152216626170
O           0.65907960991237    2.05336401458179   -1.86795763933078
H           1.34446361317875    1.42054787235464   -2.10842384813024
H          -0.15506998463081    1.50385649360936   -1.83339029825036
H           0.89350077969587    2.32262551027138   -0.31873138059858
N          -3.21308168624830   -1.72807942460028   -1.27932315356769
H          -3.35279666101307   -1.93979616459337   -0.30007221819524
H          -4.08695960439706   -1.86309033883727   -1.77090983487400
H          -2.93412505914094   -0.75299351649766   -1.35254828651818
