    26
        -50.45379119  Gyration_radius:  2.524417639 Dipole_moment: 3.725
 S          -0.75018328142873    0.23828622138458    1.17243765013149
O          -1.61175013907451   -0.83427613267651    0.70152791589350
O           0.65850304683993   -0.24427134625129    1.23873509812184
O          -0.84827348025942    1.43427368430022    0.36913079268179
O          -1.13043866050416    0.59576052653915    2.62745992092279
H          -1.09076878656668   -0.29598178613674    3.08428819918115
O          -0.05487701275036   -0.15503012312702   -2.71383145125708
H          -0.17032653953059   -0.73227703858209   -3.47034294924753
O           3.12034292727415    1.12240108086165   -0.81615708057937
H           3.26177869803652    1.32895426711167    0.11006539501157
O           1.62660317518000   -0.93445389535326   -0.88441030519537
H           0.96341823041200   -0.68846402196199   -1.60220574311817
H           2.35468847649443   -0.20903098696382   -0.92386512699864
H           1.13795193063040   -0.67975276950732    0.12437578411176
O          -2.36289040544605    0.20480532027740   -1.58771834599021
H          -2.32243797223987    1.11648044220752   -1.27906989095292
H          -0.96850702057398   -0.02928668616371   -2.31541483464445
H          -2.22759562674000   -0.31885329660201   -0.76714863403334
O           0.87156491524947    2.26564386591765   -1.50854158674718
H           2.37011692033109    1.70505412714934   -1.11681644547769
H           0.55786947351370    1.69795450059633   -2.22298710417048
H           0.25818711391836    2.10343710195353   -0.76387211020788
N          -0.94088360419057   -1.92471289036087    3.21771554087201
H          -1.30027340661765   -2.03781674004198    2.27324391193724
H          -1.43914518400000   -2.54646210277853    3.84122994345598
H           0.03732620205060   -2.18238133178595    3.21217147629531
