    26
        -50.45379103  Gyration_radius:  2.52429696056 Dipole_moment: 3.723
 S          -0.03255607766978   -0.48802519948863   -1.32458258991349
O          -0.62852192637104   -1.68211367683885   -0.74702562412981
O          -0.82239679173477    0.70991806851102   -0.92202466843912
O           1.35993408706050   -0.32834873230119   -0.97686186351746
O          -0.14573336648352   -0.55606220338039   -2.86478178361921
H          -1.12472775939494   -0.72515120239380   -3.00016820245774
O           0.57844225610233    3.18081419749240    1.09976447679369
H           0.39787785517620    3.49444276607342    0.21116464814507
O           0.85024231367547   -0.44567402258681    2.54283376400720
H           0.62800015154784   -0.82383690530121    3.39514389162725
O           1.31157937075828   -2.37750756118676    0.87601071758741
H           1.03485325657430   -1.22145759107368    1.93168741041518
H           0.51113610087967   -2.29975648382222    0.31098892759739
H           2.01373919682241   -2.02889593072480    0.31612740452570
O          -0.90542252918383    1.14985734495923    1.46996306830912
H          -0.26970542142371    0.50244664878356    1.90885404525588
H          -0.40563298140845    2.04878317319389    1.44250104264702
H          -0.92568337335419    0.89219608037792    0.35122164753396
O           2.38616023148876    1.30293614487149    0.88287002451505
H           2.20446241923045    0.74603647464801    1.64966721313724
H           2.11417892443458    0.77023779058514    0.10862980530377
H           1.38853052843474    2.60489371194279    1.02924000767879
N          -2.67823125098155   -1.05075225560054   -2.58235926114971
H          -3.13907520212148   -0.20254449560952   -2.27995376005731
H          -2.35437532464389   -1.54393605596943   -1.75419570407913
H          -3.34707469744452   -1.62850005512124   -3.07471464776230
