    26
        -50.45301686  Gyration_radius:  2.45757917745 Dipole_moment: 2.639
 S           0.56339662455499   -1.36814026276929   -0.00907627859687
O           1.99279440955827   -1.12886582779427   -0.03011471863013
O          -0.13156578927847   -0.33729898063349    0.76484791915934
O          -0.01474589274316   -1.46814866273080   -1.34965450772511
O           0.28105137525729   -2.73070144757921    0.68394917872892
H           0.75609046686883   -2.64193182561472    1.55431280645377
O          -2.68440377666015    0.22171441269840    0.55153108034496
H          -1.84124280265030   -0.19645070494923    0.83940638610414
O          -0.45873999580419    1.94111299612188   -2.26013452371347
H          -0.26462238839382    2.14386307139657   -3.17689837726067
O          -0.92512926147520    2.30593410851614    0.58827443509641
H          -0.45368892473089    1.46725741434854    0.72580923157309
H          -0.80316120018781    2.53738515724962   -0.33796704719058
H          -2.52575887330433    1.16745023220139    0.72340097221891
O          -1.99232899905427   -0.09216571080745   -1.84221207185987
H          -1.49366731099752    0.76124758891855   -2.06432164963342
H          -1.18655853935601   -0.77962143932399   -1.66985217528521
H          -2.41966251154209    0.03992019940242   -0.88618309374124
O           1.76597719149559    1.27266405141777   -1.05057096010555
H           1.88341941832435    1.80747187952392   -0.26151104673228
H           1.91741251810228    0.34236424073271   -0.76811347272034
H           0.40057076047778    1.64325945709399   -1.85505530532414
N           1.74125864737410   -1.90883811799421    2.68874666463136
H           1.23909891618519   -1.17292050842849    3.16810498010473
H           2.27167429790635   -1.48489017744008    1.93234393949441
H           2.38253163004034   -2.34167115357625    3.34093762465687
