    26
        -50.45301698  Gyration_radius:  2.45793179663 Dipole_moment: 2.639
 S           0.05157024600610    0.32845939186166   -1.44029181454355
O          -0.48266315128437   -0.86591264949014   -2.06408760578447
O          -0.59427237897754    0.58296358592004   -0.15080828621982
O           1.50491287035712    0.28089915199700   -1.27597634892960
O          -0.23852035223510    1.55589212761342   -2.34898696950413
H          -1.22180236321357    1.49928610894062   -2.49498815165024
O           0.41294704955699    2.07875618146028    1.75243055752465
H          -0.07729896374665    1.79792522989261    0.94656118992805
O           1.88888492945866   -1.61419467353178    1.70814598732673
H           2.62367742368152   -2.23004092035217    1.70463224541030
O           2.41673527712201    0.79548190216367    0.94896180294081
H           1.66905764582283    1.41569258548916    1.36163591450951
H           2.28984383455055   -0.12707061847800    1.34773699616332
H           2.09386037155812    0.64412331101276   -0.06325048000910
O           0.10496444098279   -2.41427450875766   -0.03484622155083
H          -0.75602561839712   -2.48353833904698    0.38500276813574
H          -0.04200310529748   -1.90581547240822   -0.86425397365880
H           1.26388865729816   -1.92574178414995    0.99859086990844
O          -0.62151893159237   -0.34597838615477    2.45380551681966
H          -0.76608930500812   -0.18139143222443    1.50693590417156
H           0.14258092955161   -0.92806504051568    2.51477188044662
H           0.02962259180616    1.51246058765018    2.44633765801488
N          -2.74451419415679    0.81852401187056   -2.39222521367078
H          -3.49006722487920    0.83919265273083   -3.07603859854921
H          -3.14155554362244    0.97568239161949   -1.47512409406128
H          -2.31621513533211   -0.10331540512160   -2.39467151315499
