    26
        -50.45301670  Gyration_radius:  2.45741468698 Dipole_moment: 2.639
 S           0.53383243473673   -1.35578954561898   -0.26355843864782
O           0.37524081635261   -1.49091654817467   -1.69798537764001
O           0.84088592677925    0.02814263265089    0.10411986978113
O          -0.63252267082089   -1.82908243171231    0.48290284742415
O           1.72929659293557   -2.23160789234064    0.20568424780748
H           2.47390565507954   -1.92537953623337   -0.37988452664787
O          -2.84060834190614    0.95457024977941    0.32116305994933
H          -3.76557080878096    0.73155443966254    0.20332576008439
O           0.48922815569042    1.05100771501439    2.49247316457840
H           0.89825210778475    0.59027852684854    1.72492051351384
O          -1.58752382880596   -0.32622952926713    2.17864566612427
H          -0.75676202821626    0.26564080809237    2.44925964679623
H          -2.15196824678821    0.22756715127178    1.54529832760496
H          -1.17246244893846   -1.06262651806179    1.51714871480962
O          -1.52784094441073    0.30218122036855   -1.84940921303637
H          -1.02889506104291    1.05757615571006   -2.17011863267251
H          -0.89525397478018   -0.45139562267884   -1.83889314815079
H          -2.37410902603691    0.64302579968109   -0.50129037085234
O          -0.37565799351859    2.50004025278414    0.34878828441495
H           0.25650621311941    1.92161896635199    2.12242844365183
H           0.07828449756387    1.69511140423953    0.04788313730176
H          -1.31887489132682    2.31569764514490    0.29670502362311
N           3.18161439937173   -1.06194742891048   -1.62411050042908
H           3.32926459321008   -0.10129480309314   -1.34306542286767
H           2.30442641081325   -1.10736990675195   -2.13563218815942
H           3.93731245190946   -1.34037319473500   -2.23679888837095
