    26
        -50.45301693  Gyration_radius:  2.45782601944 Dipole_moment: 2.641
 S          -1.37468880161828   -0.09081494960001   -0.53759167487550
O           0.05711229441660   -0.05706306429990   -0.84327096267032
O          -1.79097676418756   -1.42031194949199   -0.13736537550223
O          -1.70204798165311    0.92976509124724    0.45878291962074
O          -2.13039646505412    0.31536409172191   -1.83385979080549
H          -1.94101249631399   -0.44325840864228   -2.45028791709275
O           1.52490841757794    2.11511715129206   -0.87238417853054
H           0.92619357427173    1.38877114688207   -1.15985946489082
O           0.97630830058748    0.63952346158523    2.77979891565292
H           0.72637042630162    0.73502733867073    3.70045847430426
O           2.51868074092574   -0.07340951087349    0.41790224383631
H           2.30425010236845    1.63377567246942   -0.54070438986940
H           2.31952489847888    0.08091162481284    1.34682736319148
H           1.67443793807907   -0.29218358194645   -0.01096899857095
O          -0.08004460036759   -1.56544565039428    1.84039226964980
H          -0.81103089586774   -1.52512872383885    1.18295912506117
H           0.60112390808122   -2.11156542031028    1.44030379023810
H           0.51282068159170   -0.17795103871554    2.45109101365507
O           0.09600753839822    2.45078757291522    1.16556313832879
H           0.51007446012043    1.83585976623058    1.85597864860868
H           0.73631882739962    2.44855105696543    0.32657020961999
H          -0.75226278656116    1.87854787378757    0.84152020729645
N          -1.33902731941331   -1.93803873092361   -2.89242957242510
H          -1.48925332387207   -2.26380043137922   -1.94137207088513
H          -0.34110237098233   -1.88311372320734   -3.04925957712775
H          -1.73228829271467   -2.60991666493249   -3.53879433583526
