    26
        -50.45301663  Gyration_radius:  2.45735702954 Dipole_moment: 2.640
 S           0.67433336793735   -1.22465839393682    0.48887025413999
O           1.79606608884331   -0.69664106738515    1.23976262991051
O          -0.49210015387059   -0.34579294018214    0.59739188429525
O           0.99623176349770   -1.46401567005516   -0.91850487660471
O           0.26619385027992   -2.60417572896340    1.07773947624486
H           0.13175837785390   -2.40348063270590    2.04364302887794
O           0.62473261974061    1.76582032209551   -2.36149821851012
H           1.27500974200016    1.98854110235667   -3.02989241692203
O          -2.50669662144226   -0.32391926212478   -1.08063933183590
H          -1.92911450096643   -0.55551728522743   -0.31810777833879
O          -1.44350313415716    2.07658024464487   -0.33859867135808
H          -2.62762209559310    0.63700652362767   -0.97544266074258
H          -1.01186435319054    1.35427202644111    0.14769921637956
H          -0.85026156214573    2.31169408663582   -1.05912931955220
O          -0.52514458454367   -0.53129147602385   -2.61008211093240
H           0.13122080416243   -1.03606056027160   -1.92708807097004
H          -1.43857152278701   -0.47282895727030   -2.08494565209903
H          -0.13183003285494    0.40227908435481   -2.62492764682282
O           1.82170109146016    1.58920608497580   -0.03860184376773
H           1.92783854006477    0.71483351744224    0.39994931212830
H           1.12894912724012    1.65773387577477   -1.50995786000587
H           1.37766438894511    2.15045580551572    0.60187994863376
N           0.15059999450205   -1.46184196837220    3.42421936314048
H           0.94634540569721   -0.95241394415479    3.04951238024519
H           0.35294961725385   -1.73903709531317    4.37614567635267
H          -0.64488620793802   -0.83674767185936    3.43060329813984
