    26
        -50.45301686  Gyration_radius:  2.45762668055 Dipole_moment: 2.641
 S          -0.54568084490553   -0.09838964905297   -1.37204759397341
O           0.57339559662721    0.32799149011360   -0.52903646728885
O          -0.48110215118176   -1.52070730047588   -1.64385223395083
O          -1.81534417001286    0.30623587466611   -0.76728297318578
O          -0.43712346233535    0.68549992578850   -2.71003126316816
H           0.39581014138052    0.32099439211882   -3.11566677058322
O           0.61067416933393    2.52450830482842    0.90200331048270
H           0.70716790413436    1.89996172852980    0.14744496806938
O          -1.32091976935421   -0.47014880388931    2.66866824775402
H          -2.08771249103841   -0.83344175300839    3.11498269848254
O           1.44753277059342    0.21673505417614    2.09225091863010
H           1.13748181064089    2.09935528160557    1.60256169664653
H           0.68463338256029   -0.08920445427756    2.59296324276589
H           1.24353792544120    0.05599687762868    1.15571307507959
O          -1.71984603566681    1.66734802036510    1.27848858649544
H          -0.78562717417027    2.14949593267478    1.18551761246079
H          -1.83440295685244    1.14924639496399    0.34576778729731
H          -1.59420020781088    0.90031921607175    1.92838341225619
O          -0.48119142783490   -2.19640776479298    0.88675873594308
H          -1.06894576670362   -1.13214711801614    1.96908862171420
H          -0.58533503902761   -2.00896728604727   -0.07350595737830
H           0.45330805893394   -2.37476169203348    1.01817447885934
N           1.71976248046710   -0.69211261981170   -3.23508884037744
H           2.45041773193204   -0.39116838534879   -2.60335785058544
H           2.14855181908818   -1.07473663039740   -4.06794254822333
H           1.18515771579438   -1.42149504639920   -2.77095487422780
