    26
        -50.45567453  Gyration_radius:  2.46068699549 Dipole_moment: 5.087
 S           0.04530034939893   -0.94187725061175    1.70397664650873
O          -0.78536098141613   -0.50292816815658    0.60961412292366
O           1.47683473010363   -0.41627704436648    1.47711933568458
O          -0.41986658861014   -0.55234890835077    2.99983870974709
O           0.20472381275838   -2.46348527333139    1.63803083135920
H           0.56400463404033   -2.63360923032883    0.67105630890780
O          -0.47012024795817    2.70291222491538    0.03284270940097
H          -0.22067992382345    3.60355704769719    0.24647454816697
O           0.33413346739740   -0.44481417287358   -2.53352363237713
H           0.43346370179705   -0.22253769712403   -3.46038595064408
O          -1.54756867365868    1.76746339663159    2.27908057219736
H          -2.43716478312226    1.46661296215173    2.08040713475352
H          -1.09299194427738    0.98838778691311    2.65575680654385
H          -0.85192111474512    2.32400105098593    0.86338504281278
O           1.55631530517520    1.02183489076378   -0.58847080465403
H           0.85118172895707    1.67538087679462   -0.39131333633642
H           1.54515235008410    0.17757371992400    0.63388263123895
H           1.20343381618486    0.46486598445606   -1.31149289626019
O          -1.77794152878144    0.74967336406536   -1.51929932190592
H          -0.53114063630661   -0.04831802739311   -2.24140228659010
H          -1.66572866379821    0.20646609842656   -0.72019956092955
H          -1.47725707157897    1.62633232574861   -1.24254256605701
N           1.15371796471941   -2.64813251988495   -0.73033295299876
H           2.13439864167451   -2.41012872298787   -0.65223652789338
H           0.70307474129195   -1.94421727404009   -1.31173551498117
H           1.07200690453665   -3.54638745001506   -1.18853004856981
