    26
        -50.45567463  Gyration_radius:  2.46074372057 Dipole_moment: 5.088
 S          -1.62596967903019   -1.05677911627702    0.17541261173232
O          -1.00621686889269    0.07332196406972   -0.47200476422537
O          -0.62566238973899   -1.65595577379529    1.18401205532814
O          -2.86499070663406   -0.76455842496833    0.82879699211622
O          -1.82308066695330   -2.17905350984566   -0.84760868517218
H          -0.86645576331002   -2.32500728560653   -1.24333744916870
O           2.21383654242058    0.04421218154541   -1.35174298899153
H           3.09581195250318    0.33594672185714   -1.58704902953197
O           0.32898209834302    2.14610637542106    1.67724611203364
H           0.46396780142540    2.52889523110002    2.54574448255569
O           0.58999109487887    2.10039100103362   -1.12712495763056
H           1.63312688372924    0.85233517863286   -1.38412076300707
H          -0.15088515806351    1.47272161244417   -1.06897315530624
H           0.69056869702510    2.41826169611174   -0.21920950799670
O           1.47395469697783   -0.26775057676130    1.25250038219862
H           1.10609868131555    0.62280150293677    1.43913577484556
H           0.25049289589734   -1.10980302447086    1.23553597149500
H           1.79585838283103   -0.23085535343703    0.32916636456206
O          -2.29937713946960    1.75728427431339    1.53123477933182
H          -0.64209241428980    1.96852008712241    1.60824267700201
H          -2.62794858719993    2.22385629475255    0.75940925289178
H          -2.56652474506959    0.82631754081266    1.39922955102382
N           0.60367573728447   -2.42883173630187   -1.61723233995879
H           0.75765789289929   -2.87186894188385   -2.51366886808365
H           1.06372370241938   -2.97549548211841   -0.90023814724201
H           1.03145704870664   -1.50501242668105   -1.63335636077740
