    26
        -50.44772981  Gyration_radius:  2.51299479325 Dipole_moment: 2.774
 S          -0.04792417279424   -0.97897393821999    1.87208737294450
O          -1.11527850812121   -1.85850158556893    1.45845936735856
O           1.27468082645645   -1.52305640751169    1.51792326185794
O          -0.20505820254149    0.38760906237434    1.42811920089816
O          -0.06535630621301   -0.94657488287079    3.45283608006684
H          -0.03976367301769   -1.87690944030894    3.64922260328063
O           0.03295801836883   -0.44940695095391   -2.11493889001346
H          -0.05359201215475   -0.86468533387351   -2.97440626608753
O           3.14078064791878    1.14515962570791   -0.67094396095844
H           3.56669137431298    1.50845828317386   -1.44884335725445
O          -2.08374724900190   -1.01777584040268   -0.86076083321005
H          -2.45526399788755   -0.15017637335779   -0.57246262611306
H          -0.83319027875203   -0.68702916429604   -1.60705771094227
H          -1.80134083102307   -1.44706465782355   -0.02566563630556
O           2.07985123065169   -1.17054545210151   -0.76557927696702
H           2.62374880391163   -0.30276854233272   -0.70388014918166
H           1.73824860873305   -1.36496682753283    0.25177155816344
H           1.24668564098767   -0.93603920791665   -1.31502843896601
O           0.63804626362741    1.87488750110766   -0.63848325355650
H           2.24819421199612    1.58584789032579   -0.59585855816855
H           0.27588786401017    1.30006224250036   -1.32701942604291
H           0.33860831522759    1.47263735758063    0.19945089844483
N          -2.66691009508861    1.37559070052812    0.26216916185567
H          -1.87850479840968    1.16570951563429    0.87294509156580
H          -3.48491013657336    1.49754254928962    0.84534269489635
H          -2.47354153495123    2.26096990658337   -0.18939891726780
