    26
        -50.45567460  Gyration_radius:  2.46072724125 Dipole_moment: 5.092
 S           0.97257122506853   -1.22218513292414    1.16307404673880
O           1.01352960500149    0.03716789103825    0.46116741117618
O          -0.35438762425564   -1.93093941353020    0.82566506252104
O           2.07549146971842   -2.09258177283259    0.89197413541860
O           0.86860481150985   -0.95816534817155    2.66787707675690
H           0.02991376560911   -0.33974974825667    2.75403350004705
O          -1.69965684596513    1.95540225404226    0.13634014939536
H          -2.31843825596643    2.60851706315515   -0.19367300303492
O           0.29232357564724   -0.29561894318336   -2.71209485199077
H           0.17119229511750   -0.78305839221197   -3.52866396475784
O           0.56167994930627    2.06640237320573   -1.20119851032529
H           0.43637016813164    1.50518562833692   -1.97887583970010
H          -0.83962034202456    2.11907540952767   -0.33785643773619
H           0.94761195651865    1.46277550280953   -0.54320070497590
O           2.49518173655191   -1.33800567744714   -1.64347817919033
H           3.12425447323014   -0.62650667863858   -1.50427269172155
H           2.36864612849035   -1.74226528818488   -0.76253853383995
H           1.09478662238869   -0.68365392789761   -2.28231102357836
O          -1.65530709098170   -0.58229499849947   -0.85647191386176
H          -0.91532580185774   -1.40138594623373    0.13757274556242
H          -1.75474181253402    0.30737871076586   -0.46140966789541
H          -0.99097214615328   -0.48041457917970   -1.57160710201690
N          -1.25150133713490    0.47301776505075    2.66229256355616
H          -1.24295331567449    1.05520720651796    1.82703501840875
H          -1.40729604316957    1.06537205507182    3.46754623038866
H          -2.02195716657766   -0.17867602232098    2.58307446464895
