    26
        -50.45567462  Gyration_radius:  2.46074979519 Dipole_moment: 5.088
 S           0.41204097881041    1.37267962162386    1.31803655778371
O           0.45347384631863    1.01418136828472   -0.07841240839993
O          -0.12821885916576    0.17127161071871    2.11898932934563
O           1.66458139304236    1.80061970144002    1.86158958588649
O          -0.65030432720156    2.45502351223009    1.53005427460790
H          -1.51677509893424    2.03566024606558    1.12204305770278
O          -1.96057883249367   -0.80302365359257   -1.49694304302744
H          -2.42803990689635   -1.38482138230216   -2.09809018310316
O           1.93380171548643   -1.86108090794119   -0.57002493767218
H           2.49204597757466   -2.60263187566228   -0.33021673679815
O           0.45989478316346   -0.29993395480293   -2.39342460473061
H          -1.10014959325090   -0.57269868539036   -1.94181262900307
H           0.54436806944478    0.37839513717057   -1.70135293612532
H           1.01596800192113   -1.02316067902996   -2.07216470774511
O           3.24561168823117    0.26977535429505    0.33520940158039
H           3.39364940752382    0.86534468901099   -0.40285530183728
H           2.75624122776773    0.79888397990705    0.99556144963727
H           2.38996375938466   -1.05538833091265   -0.22071953594710
O          -0.51007510866820   -1.79096185329088    0.58796851499519
H          -1.10825718466093   -1.46473581488375   -0.11437844794549
H           0.37147191202016   -1.87556686247486    0.16496693420640
H          -0.29820924226540   -0.65291354727476    1.51863075686616
N          -2.66406943439869    1.21323764089705    0.55722500563402
H          -3.45216461296708    1.77564842903881    0.26368929249330
H          -2.96996290749064    0.57668439464727    1.28233595212187
H          -2.34630764229250    0.65951187222654   -0.23590467052489
