    26
        -50.45567463  Gyration_radius:  2.46071813676 Dipole_moment: 5.090
 S           1.54701868957115   -0.90642355412955   -0.75906141926706
O           1.47168221072867   -1.36513583761442    0.71083720980423
O           0.48887597349564    0.04362808383685   -1.00002019940199
O           2.86109670687715   -0.42350900549707   -1.05503078689984
O           1.26646787664456   -2.18637154769250   -1.55154617288948
H           0.30472314828504   -2.46079079020653   -1.24697548648459
O          -2.55170015079133   -0.34168992556967    0.32426825818140
H          -3.42973792389569   -0.15240902035018    0.65834775758609
O           0.40642085915376    2.39846509400341    1.26857491486873
H           0.76334791412886    2.92733859055360    1.98409555522838
O           2.43284296978385    2.14719782792466   -0.43761533759390
H           1.15150952367475    2.26974075996684    0.63019058274625
H           2.71327066478735    1.22554118057809   -0.60331557132129
H           2.14718412167455    2.47916464472756   -1.29174044705582
O          -0.35161505497032   -0.11592651547011    1.91676044585744
H          -0.09650541325705    0.81412221970015    1.73449424516460
H          -1.16608660472886   -0.27165546982340    1.39726145745083
H           0.72987421042846   -0.87190231772992    1.23565655329525
O          -1.48239572603011    1.81333393968172   -0.73788866490385
H          -1.06496321169148    2.28919668558392   -0.00663987287730
H          -0.76679909696007    1.25290371902705   -1.08439710621637
H          -2.24938192022976    0.47924630334616   -0.15104891208211
N          -1.05134125545756   -2.72019758077333   -0.60995618809347
H          -0.88781145722149   -3.14778837904613    0.29280598134481
H          -1.64011911052136   -3.33300109160485   -1.15890843493579
H          -1.54585793345133   -1.84307800339391   -0.45914836151387
