    26
        -50.44772978  Gyration_radius:  2.5129819929 Dipole_moment: 2.774
 S          -0.28424136896044    0.34622077427026   -2.06512368095965
O           0.73163102672047   -0.69773034892337   -2.28630566743620
O          -1.61864451191701   -0.20392399999704   -2.04065905222616
O           0.03299077025232    1.17366077755867   -0.92316809408825
O          -0.19456205585091    1.27859370177483   -3.33899896987416
H          -0.49230262506300    0.68135641431546   -4.01679038355404
O          -0.25627896774236   -1.55644904675225    1.47915079445357
H          -0.53697048474368   -2.33167317183078    1.96790789320235
O           3.29660688384571   -0.54483700772726    0.67893318124816
H           3.77744013258414   -0.85409844763674    1.44813509767861
O           1.47260153359422   -1.99766024628539   -0.35030491539216
H           2.29399233954229   -1.48595331780483   -0.00949867300197
H           0.74773274932945   -1.86262921535593    0.36200556689961
H           1.14508755674844   -1.45222194384667   -1.23614785942361
O           1.22838184151894    0.84011325751384    1.45455662917317
H           0.64399327663072    0.13217247045569    1.75947668391918
H           2.62742836163695    0.12128349289476    1.00303943204791
H           0.85513034838997    1.11287261445626    0.59439310321725
O          -2.35737518589161   -0.57802818568447    0.47685199922029
H          -2.37533240464054    0.36150046269749    0.77823266086559
H          -2.19851577487137   -0.51707300420178   -0.48879323702892
H          -1.11814405988123   -1.16289645753178    1.07060961963134
N          -1.97583116981442    2.05658145283010    0.96930833888661
H          -1.28017715319739    1.98960138349985    0.22751400494647
H          -1.50520026702093    2.40293095632006    1.79619646968732
H          -2.65944080256368    2.74828662918570    0.68947905353440
