    26
        -50.45567396  Gyration_radius:  2.46123906138 Dipole_moment: 5.088
 S           1.87088531452549   -0.53271527907455    0.00912928697325
O           0.54617086659913   -0.84456147878735   -0.46853186080662
O           1.78380904606905    0.69630719694122    0.93561397325000
O           2.53090886040095   -1.60922026480644    0.68232650860864
O           2.72709435676894   -0.04135750688285   -1.16165982226071
H           2.16956761787901    0.74650096114342   -1.56287947429070
O          -1.62333042297094    1.55566801084194   -1.29002135467232
H          -2.44127669812534    2.01966722847438   -1.47418811499041
O          -1.63916889997959   -1.01708358517918    1.95491281616999
H          -1.91875464936759   -1.09825729082626    2.86831923154160
O           0.35030142988460   -2.76788800521285    1.71866076128566
H           0.13048920490936   -3.37582986559149    1.00912745912098
H           1.20747872745682   -2.37479139824393    1.46111517734823
H          -0.88063444403963   -1.64366219979294    1.84774021643661
O          -2.08758232405971   -0.99062998884473   -0.82558009676538
H          -1.12754712995454   -1.14300105723553   -0.86285885192071
H          -2.29129076008300   -1.05481103391169    0.11775552666153
H          -1.85703445334337    0.58993719963089   -1.22521180878009
O          -0.61922178494487    1.38373984296335    1.23818841089277
H          -1.02604817376454    0.54028459819857    1.53216872494089
H           0.80821870579756    1.00595844830039    1.08167666477017
H          -0.96007706940833    1.53912570405934    0.33432750199061
N           1.24891295951638    1.89956538324351   -1.93200817959345
H           0.27507233504859    1.63184320836155   -1.80272785655139
H           1.37239266089162    2.21984639876202   -2.88367848692429
H           1.45066472428016    2.66536479347025   -1.30171634238689
