    26
        -50.45567416  Gyration_radius:  2.46103552145 Dipole_moment: 5.090
 S          -0.25781172498941    1.14207019213289    1.55391455242741
O          -0.75132637259654   -0.25561887344582    1.97756463057891
O           0.15849750281713    1.08527702457841    0.17416086420374
O          -1.26144242833360    2.12279118495159    1.83405698420047
O           0.96789114851868    1.37587309340591    2.44171790193533
H           1.61835699174002    0.60273902299860    2.17392678758423
O          -2.09917687496121   -0.29434111755952   -1.74601431489373
H          -2.97904695292087   -0.60356599767382   -1.96798681342577
O           1.78222120813014   -1.56022376683307   -1.05338320733063
H           2.13839939038749   -2.20737821418057   -1.66377237089814
O          -0.71523701067210   -1.82128722687094    0.00631493607758
H          -0.74905511736008   -0.92521621202252    1.18970716949093
H          -1.23938025659307   -1.31551499720484   -0.65155151979354
H           0.20621586244674   -1.80402568192494   -0.32224726373255
O           0.56756848206557    0.37319042473959   -2.35774565279998
H          -0.33869061324798    0.06728110926762   -2.50133362740429
H           0.51301559906165    0.86491204638848   -1.52017507064950
H           1.42985599845976   -0.81363067501479   -1.61000440297348
O          -2.50705372699177    2.03961171453104   -0.53521945450196
H          -2.17940281422879    2.08162273183507    0.38483104937629
H          -2.01115417606473    2.71167895682803   -1.00824001356803
H          -2.22621522517999    0.56456771250926   -1.27112141524381
N           2.36704397672275   -0.63340098051139    1.69992784974566
H           1.99474329129214   -1.42805369879599    2.20426705058257
H           3.36438130350354   -0.58288053854606    1.86223919425737
H           2.20680252900593   -0.78647722356307    0.70616615674913
