    26
        -50.45567421  Gyration_radius:  2.46099755662 Dipole_moment: 5.089
 S           0.41513786880843   -1.86523103863813    0.36598260102683
O           0.76556779294348   -0.49235198580943    0.63587658907999
O          -0.72123082647871   -1.88804819683673   -0.67556054687551
O           1.50324307363793   -2.68246522118410   -0.07668630423859
O          -0.22780356502273   -2.47691781237470    1.61405286700570
H          -1.01183102449123   -1.82171786418834    1.83461125805291
O           1.28013677203092    1.21672173217120   -2.10250265330512
H           1.45668437469375    1.32520297203704   -3.03850582289491
O          -1.55648864100847    1.89695986636072    0.83669982872017
H          -1.98296824597114    2.75508126670990    0.83260921923534
O          -1.23160320587093    0.45198052127375   -1.45156974790845
H          -0.95678754825301   -0.94064807793729   -1.01618131971783
H          -1.44212728628726    0.95499437404015   -0.63919855359978
H          -0.34269794692497    0.76102070217086   -1.73025187632677
O           1.04397484151302    2.15328435402138    0.54292738675305
H          -0.57616360077454    2.07070056319871    0.82436158284408
H           1.13264247140993    1.20929646815311    0.76038806002788
H           1.20116902515002    2.18253385508940   -0.41100138744828
O           2.87920765173463   -0.77491010217443   -1.35721477666160
H           3.43438440825190   -0.45960576402540   -0.64050382520342
H           2.41359261736755   -1.55432727221684   -0.99487300837026
H           1.84767227576897    0.46216419649553   -1.80593541437850
N          -2.13337231300171   -0.79831902846333    1.92424643651905
H          -2.84969124439449   -1.07189659593296    1.26355625844388
H          -1.79427778201171    0.12434897920245    1.65880378276427
H          -2.54636994282559   -0.73785089114001    2.84586934645885
