    26
        -50.45567411  Gyration_radius:  2.46111845332 Dipole_moment: 5.090
 S           1.34888153181621   -0.93708459593056   -1.04263977111804
O           0.46982453723813   -1.00099571378380    0.09904884647742
O           1.21768492132843    0.45677762260615   -1.68794943355433
O           2.72220279864381   -1.21726996766044   -0.75430167318745
O           0.83561232558216   -1.88678113541140   -2.12885363333549
H          -0.15411139737894   -1.58403349605999   -2.27478632336001
O           0.84548020690391    1.55760730152651    2.09779500598430
H           1.30313527491700    2.32013454541253    2.45575403816239
O          -2.56141690616223    0.39616623337943    0.04955101213699
H          -3.38872618894042    0.78691177741415    0.33438771221711
O           2.76160272924918   -0.25403179267441    1.74430367578468
H           2.51870760446979   -1.04418223293271    2.23215015150766
H           2.87364389172275   -0.54981129743906    0.81938255963858
H           1.54363630576490    0.87550237632790    1.93416243968939
O          -1.16107601200360   -0.41883836149664    2.12087232030090
H          -0.65146682731688    0.34893234446370    2.41470760598090
H          -2.13240804975013    0.02141707544126    0.86622544386350
H          -0.56043783706451   -0.86830432506433    1.50160147006836
O          -0.32089285853305    1.90437755358149   -0.31821236798473
H           0.59105133922441    1.07843699781789   -1.14950817020660
H          -1.16236045018369    1.40831170864433   -0.26203100462920
H           0.08771723046563    1.83236379077464    0.57131209113518
N          -1.52493954640064   -0.93476311668208   -2.38686181709141
H          -1.42750633785275   -0.11478984615550   -2.97219801244469
H          -1.85062063582299   -0.63227265902101   -1.47079807847305
H          -2.22321761991537   -1.54378076707612   -2.79311409755311
