    26
        -50.45567444  Gyration_radius:  2.46069888501 Dipole_moment: 5.088
 S          -0.16574969912082    1.30519610235677    1.43430097231703
O           0.42856278685903    1.01332858110915    0.15293285308064
O          -0.96230617199799    0.07034984675698    1.90032148188963
O           0.76475808164454    1.69992418360787    2.44709609891392
O          -1.24021481761173    2.38208823716928    1.25877935551188
H          -1.86820401339041    1.98677555421138    0.52243677738503
O          -1.20105382551406   -0.73202598631994   -2.17912486335314
H          -1.38498523230776   -1.28323811316617   -2.94116861001880
O           2.03571242679466   -1.83483599253688    0.15741944160733
H           2.46686046818272   -2.58727617574106    0.56605056625792
O          -0.66713432167548   -1.81894302686344    0.26268831987019
H          -0.94781809534948   -1.46026722565876   -0.60333504926979
H           0.31127674621058   -1.88223412896236    0.21745971536520
H          -0.86330087727768   -0.72601897568987    1.24832871106902
O           1.36756443359024   -0.18873078911918   -2.02859857362297
H           1.16075250302778    0.45516864892937   -1.32939997937657
H           1.76629698531366   -0.92692327124752   -1.54745206357071
H          -0.23922945990590   -0.48186259917646   -2.23948234769525
O           2.84979917420491    0.25212501446798    1.59277374601387
H           2.30491405839733   -1.04624334978539    0.69137166163747
H           3.25830089495941    0.88325077546756    0.99599273052645
H           2.13019083504214    0.74619186052389    2.03275159606225
N          -2.68600877398862    1.19557462519399   -0.48655775054873
H          -3.24568921727553    0.52912919830375    0.03032099626459
H          -2.07260145453434    0.67577178311259   -1.11120978688136
H          -3.30069344428523    1.77372524302913   -1.04469601943138
