    26
        -50.45567420  Gyration_radius:  2.46098960306 Dipole_moment: 5.091
 S           0.01866375614873   -0.65131352709986    1.83328893778238
O           0.24617457249473   -0.98539406344882    0.44868914670601
O          -0.49966155799371    0.79848112053540    1.91155534507063
O          -0.87770286262537   -1.53082941720174    2.51945058756904
O           1.36213506866070   -0.59362308558855    2.56605378557886
H           1.92316558123718    0.08332133304170    2.00061270835785
O          -2.32407973671742   -0.26518455461019   -1.43823991024600
H          -3.24278118478021   -0.05183977416722   -1.61007094279244
O           1.53021284297469    1.22765259900731   -1.69493288967751
H           1.76385319841970    1.67858940029298   -2.50752308335644
O           0.27501147506807   -1.02416628906915   -2.21275287254106
H          -0.65929125898520   -0.79154188291763   -2.30511512296501
H           1.15386371653555    0.34532205326102   -1.96182868102013
H           0.36116586923206   -1.25506269931182   -1.27172197436776
O          -0.81809627428021    1.73046891691917   -0.40542811616234
H           0.05154345971389    1.63867358937132   -0.84426654281071
H          -1.39214913227487    1.04578111443537   -0.81162892841100
H          -0.64165960848051    1.21271745577420    0.97489598425921
O          -2.42546741448862   -2.16034712028892    0.42656928151947
H          -1.95524455289919   -2.92922283117851    0.09633223251511
H          -1.97820136264637   -1.92856113311442    1.26430416305806
H          -2.33475917360006   -0.95359374935112   -0.72733831673830
N           2.52548214121565    1.14622982726556    1.09480987163322
H           3.53666347686970    1.16704160639509    1.12092456169912
H           2.17310005216667    2.04407775618824    1.40166669530547
H           2.22805890899305    1.00232334484206    0.13169409004833
