    26
        -50.45567395  Gyration_radius:  2.46132917766 Dipole_moment: 5.089
 S           1.26504000132839   -1.15619258283249   -0.92059812513844
O           0.83726504009073   -0.63533573403313    0.35450627751385
O           0.41721041255139   -0.50186507896652   -2.02941913211799
O           2.65751343856137   -0.98097184255258   -1.19974124677697
O           0.89382272364694   -2.63917183321882   -1.01064795969171
H          -0.13257255940537   -2.65075055579262   -0.81275834932082
O           0.69711734617856    2.62887871374783    0.37921722332120
H           0.89163058606551    3.50934063419761    0.05352315233067
O          -2.38395324981694   -0.06306994851654    1.01653664211433
H          -3.18415918692833    0.28809922376893    1.40984589529942
O          -0.26201028247527    0.80801521518831    2.30247561145549
H           0.27146480798689    0.17247234973572    1.79489380768656
H          -0.04151944750096    1.66045973519898    1.90219130494333
H          -1.63355149893750    0.21990866056588    1.60671280459505
O          -1.12802697193441    1.21925464642832   -1.03491704271248
H          -0.49635898073277    1.77791622305981   -0.53267808494011
H          -0.23046107780359    0.21158129016493   -1.65486366780974
H          -1.64997807560616    0.74051665563861   -0.35989772583466
O           2.99829006659506    1.31543705254536    0.13540936203377
H           2.95783178385750    0.53161846736416   -0.44734239288272
H           1.53438222765204    2.11145500244082    0.27603138744460
H           3.24038088654369    0.97318191069860    0.99886932870203
N          -1.62084687245020   -2.43564795847482   -0.58611293292303
H          -1.77312661482034   -1.68508437513157    0.08484724741519
H          -2.09750632733181   -3.26500126859774   -0.25677514930466
H          -2.02787817531014   -2.15504462263206   -1.46930824539460
