    26
        -50.45567447  Gyration_radius:  2.46081050972 Dipole_moment: 5.090
 S           1.32073194860016   -0.88424579543764   -1.12302662013763
O           1.01264455518141   -0.41031607629488    0.20395688452365
O           0.16306301309990   -0.49819948538562   -2.06511625456508
O           2.56289194358983   -0.41017536248149   -1.65222155724832
O           1.29637913084030   -2.41543292707363   -1.13065605213747
H           0.35095858179385   -2.64945136532117   -0.75105191014529
O           0.11653089762181    2.73404722178048    0.21663948282465
H           0.03952042556577    3.61633530898835   -0.15035989731674
O          -2.08513609263985   -0.55380825144565    1.43895530142423
H          -2.86274435158515   -0.37725124678154    1.97038601936692
O          -0.03503914820355    0.84813650559669    2.30272477961445
H          -1.33056407065022   -0.07501578316813    1.87798607090827
H           0.53464299901173    0.32464796140283    1.71309973286341
H          -0.09473788777471    1.70552605769410    1.85900160617340
O          -1.54608662667179    0.87008739456832   -0.82198803902319
H          -0.98578422751830    1.58515842733341   -0.45045154033548
H          -0.55880639968535    0.06520344585610   -1.58502461553208
H          -1.81387555392146    0.32163551659653   -0.05726119563568
O           2.58357363075989    1.96827248877273   -0.42117603768171
H           2.62771813959569    1.16774279270791   -0.98040480499070
H           1.02097724922353    2.41680218835071   -0.02971010063442
H           3.04180761614317    1.73320791843380    0.38882043832476
N          -1.08498088639732   -2.76345072524649   -0.26294848762441
H          -1.28517335179455   -2.03874324450842    0.42368122207760
H          -1.29757135856223   -3.66389711319663    0.14646932161560
H          -1.69094017562084   -2.61681585174546   -1.06032372670815
