    26
        -50.45567462  Gyration_radius:  2.46071820612 Dipole_moment: 5.090
 S           1.02723540613979   -0.15080229977229   -1.64659477206480
O           0.58845425499184   -1.58622305555989   -1.29463884153985
O           0.55881661828485    0.74050446984337   -0.61391796512806
O           2.43959125805490   -0.11148992095832   -1.87321559803961
O           0.27767663006115    0.14653151663955   -2.94850260226524
H          -0.72896920782481    0.07108499979835   -2.67722030646100
O           1.32673795672662   -0.32813476881246    2.37972909829880
H           1.80779547247947   -0.86282135523224    3.01352031207616
O          -2.44011021957081    0.36163954544628    0.80248366383158
H          -3.16468849763979    0.41121663893684    1.42765425735532
O           3.17938546037136    0.45517273727609    0.63784317796514
H           1.99264220209930   -0.04424764929210    1.70498731391687
H           3.02050923897219    0.16470500135646   -0.28187091814154
H           3.16929954947512    1.41433226552909    0.60261834265838
O          -0.56856868463046   -1.61512975124064    0.94140970827263
H           0.10747564196967   -1.63375101148194   -0.38077499468046
H           0.10412821902430   -1.18133728321888    1.50937872444861
H          -1.30261636554882   -0.97265986700344    0.86585699807476
O          -0.39178570076830    1.77904166754172    1.64528725102746
H          -1.74444062943951    0.99490508858712    1.12848895198955
H           0.11658413584889    1.19225416585013    2.22213114539170
H           0.01808986579767    1.65296552669363    0.77219329112175
N          -2.11298891390174   -0.16905608923456   -2.09404971587401
H          -2.16005524259326    0.17667997603148   -1.13750326158338
H          -2.26687797275613   -1.16930233945829   -2.07451720467599
H          -2.85332047562194    0.26392175172848   -2.63077605596124
