    23
        -45.36831543  Gyration_radius:  2.34549093094 Dipole_moment: 5.164
 S          -1.03958569508899   -1.22397230817745    0.77011670997938
O          -1.07490070434646    0.16764933520268    1.20012653830880
O          -2.24992093219129   -1.59090624052365    0.03977732167765
O           0.15531275675183   -1.55332955096479    0.02656262608866
O          -1.01736648995488   -2.10368920737997    2.08476347481810
H          -1.83153691308022   -1.90161480891418    2.53832945272459
O           1.75800460546533    1.86828631541595   -1.04322374217858
H           2.39658588751063    1.88360172526743   -1.75615162561626
O           1.01696878597615    1.07660913002925    2.61074530804452
H           0.20732409213771    0.73663436379537    2.18152429735055
H           1.01514692223146    2.02450110482712    2.46225933980280
O           2.37339095995033   -0.10588896239982    0.56703277785648
H           2.12556296982142    0.26538480448224    1.43511706492735
H           1.66975069018508   -0.75020243053105    0.36968136098235
H           2.05012483988439    1.14226517499209   -0.42475273375514
O          -0.85199882353736    1.45478368830275   -1.13707475151549
H          -1.03022962763962    0.19511343599094   -1.87690075106838
H          -1.01703840098817    1.14776679916235   -0.22140647225369
H           0.10162252437686    1.71485912872102   -1.15036026750513
N          -1.16264544643405   -0.86370287169045   -2.16866637580261
H          -1.80590711685379   -1.24270093449606   -1.40248767327418
H          -0.27418193738195   -1.33965942986674   -1.99473417932757
H          -1.51448295682418   -1.00178828124895   -3.11027769031480
