    23
        -45.36831561  Gyration_radius:  2.34527114483 Dipole_moment: 5.162
 S          -0.80247555618370    1.14683051185469    1.10119167168589
O          -0.03623486154000    1.61909836614181   -0.04448516648622
O          -2.23696635395351    1.33359967644449    0.90085922707508
O          -0.48568862517794   -0.21477913557973    1.46826618188581
O          -0.39131928696013    2.05811921189357    2.32716760003969
H          -0.64310594176984    2.94417385121536    2.08033112337383
O           1.42165925621977   -1.76140309542569   -1.59402224168563
H           1.48637453983656   -2.71333748407612   -1.67135584685521
O           2.63526186350103    1.43343312116940    0.09565589405344
H           1.67176907445197    1.59523646255284    0.06730720923547
H           2.92365951936568    1.40309084417651   -0.81892359467757
O           1.99930956488722   -1.09705282113801    0.87455993464878
H           2.45580212730950   -0.24379498938457    0.74615983227476
H           1.12344299760227   -0.85271491830841    1.22436990581788
H           1.69659299935250   -1.53950241119386   -0.66130202667708
O          -0.68465435571361   -0.19352535543344   -1.90537797943898
H           0.10146729592738   -0.79291885266825   -1.90646655548372
H          -1.72893232801647   -0.75347170791797   -1.03236096389438
H          -0.40888656077902    0.58362145518985   -1.37625848808744
N          -2.40691245854971   -0.98383565516269   -0.18919906620119
H          -2.59159587558233   -0.02040492597239    0.23744812764452
H          -1.85131254794784   -1.46070346573596    0.52503690080259
H          -3.24725446612858   -1.48975869261590   -0.44860169914427
