    23
        -45.36831562  Gyration_radius:  2.34526583053 Dipole_moment: 5.162
 S          -1.30053976100808   -0.69832352563158    0.99639922269036
O          -1.77673630230871   -2.02012875886217    0.59780370191181
O           0.08728323846759   -0.74031578069476    1.43798897947555
O          -1.53444352019607    0.28841488339105   -0.03353274947293
O          -2.16121149215338   -0.26313509289230    2.25034821124384
H          -2.02389591076105   -0.94637333637100    2.90129756783596
O           1.99763212883903    1.26511349299672   -1.43913071935631
H           2.05975388625329    1.69551611180784   -2.29187755240050
O           1.18746096782133    1.55810952657383    2.27371686185219
H           0.77485397564730    0.69744345821111    2.06323832281341
H           2.12992849964680    1.43732732129437    2.14037263791435
O           0.10183775075724    2.43980122042330   -0.06254640194873
H          -0.60218391084102    1.76660109142870   -0.08010209494333
H           0.46027421768107    2.39229948637329    0.84419422555099
H           1.30608653840013    1.76697000831807   -0.92466511377266
O           1.36621264776001   -1.23692157391501   -0.86118890612235
H           1.70538393787299   -0.34430460947603   -1.11671044834390
H           1.05513044739595   -1.13395220984307    0.06218369352888
H           0.08859928882387   -1.49189064662181   -1.54585751496776
N          -0.98065480978088   -1.60362695328867   -1.80655748768253
H          -1.15820977079563   -2.17158383354246   -2.62838527648541
H          -1.37693277327591   -0.66281376729586   -1.87108192516282
H          -1.40562927428243   -1.99422651248418   -0.90590723418925
