    23
        -45.36831483  Gyration_radius:  2.34524838577 Dipole_moment: 5.167
 S          -0.12254266577259   -0.31740477863561   -1.74777294606530
O           0.10317217057722   -1.69759430620591   -2.16832666480121
O          -1.31459052221886   -0.19886305025984   -0.91865854857567
O           1.05256712322955    0.25367509754551   -1.12935777574877
O          -0.39905058916925    0.51887637834461   -3.06184131418152
H          -1.14051362886535    0.09175220316371   -3.48281111619720
O           0.17491589296038    0.69929742373946    2.67243110709403
H           0.88194984322223    0.81346769829004    3.30751015261296
O          -1.98700260317286    2.25058425433733   -0.05874364435482
H          -1.81121208222978    1.36859310697197   -0.44159832591770
H          -2.50341259035998    2.09452107108795    0.73464520442832
O          -0.54629373487233   -1.45461428839818    1.31796779064175
H          -1.00706503886392   -1.04060496417488    0.55885002998571
H           0.67862771739814   -1.93317408629503    0.65575497418782
H          -0.32326026421259   -0.70338324279426    1.92030165600417
O           0.64817985030539    2.26861886487921    0.62697001552038
H           0.35836208048945    1.34448349511173    1.93439805403203
H           0.91191687029612    1.62844757837891   -0.05846446506373
H          -0.25518416015329    2.53761475299951    0.37300746915549
N           1.50005425658966   -2.12831626664978   -0.05862675241247
H           0.99073085228476   -2.19186097424131   -0.99684698376762
H           2.06788101043655   -2.94004782089272    0.16071038164548
H           2.04177021214288   -1.26406813631721   -0.13949828825635
