    23
        -45.36831561  Gyration_radius:  2.34528890991 Dipole_moment: 5.161
 S           1.04807932062346    1.37708504371093    0.42189896221106
O           1.39962592828530    0.47249085152436   -0.66478744204243
O           0.62811546561450    2.68217498715722   -0.08128515970170
O           0.07480145512068    0.81476460009352    1.33054257071701
O           2.36976320602832    1.61513627879058    1.25795377231869
H           2.98346467836727    2.02209470197156    0.65201496514154
O          -1.51055967989588   -2.25925552130847   -0.52689452877019
H          -2.34807721750802   -2.60920482550529   -0.22288763059347
O           2.25380216007756   -1.98136404698072   -0.00149428256306
H           2.03625244381629   -1.06334053335599   -0.25684660950691
H           2.05654891927482   -2.52156643482020   -0.76955842725203
O           0.02668091204882   -1.87803934195811    1.56135316629075
H           0.02708913754741   -0.90643733590254    1.63305939433059
H          -0.93465958463008   -2.17497238791839    0.28301584890846
H           0.90664938913446   -2.09476787020802    1.19855604008216
O          -0.99320492048951    0.01374342704171   -1.77529720622057
H          -1.23412023204994   -0.87285800328547   -1.41060403132105
H          -1.60588906579460    1.06772523240522   -0.95050353203558
H          -0.04878581477644    0.13386157948610   -1.54379539784085
N          -1.80303036479468    1.87016673710260   -0.21511698764206
H          -1.80487035113727    1.43802495185690    0.71203397507718
H          -2.63403234661016    2.42112920719881   -0.40324799264317
H          -0.89364343817620    2.43340869292689   -0.22810946706889
