    23
        -45.36831552  Gyration_radius:  2.34524599432 Dipole_moment: 5.166
 S           1.55800928931041   -0.11757814759680    0.85482545139719
O           0.58302639348104    0.90493258565373    1.21087102254436
O           1.65106023264505   -1.15108244749045    1.88241050053233
O           1.32781673333655   -0.68372094241096   -0.45500979944230
O           2.96686690623356    0.59979307625363    0.80129261106495
H           3.11577204724436    0.93268565360696    1.68245052043481
O          -2.33065703478487    0.32194629234358   -1.45930531733344
H          -2.77109748590761   -0.16754616512745   -2.15407019280551
O           0.25813495336719    2.94948612282008   -0.49362144622925
H           0.43189882261705    2.26426887393237    0.18139479177780
H          -0.63003651470358    3.26902329332428   -0.32155202179927
O           0.09479431539421    0.89330639314186   -2.27124773019493
H          -1.43338988136386    0.56727881493891   -1.81937803137718
H           0.23790117152816    1.76772348350238   -1.86168016090801
H           0.63239823929960    0.28353225578755   -1.73423786995157
O          -1.71620461997290   -0.44961430458971    0.99401589947218
H          -2.05794177141330   -0.15600125779903    0.11405506236057
H          -0.98419196752365   -1.71684273670800    0.83934640784439
H          -0.97551969731235    0.15993257281928    1.19351983615334
N          -0.20574150601752   -2.49484840998997    0.72718903282969
H           0.57820857812992   -2.14029466585945    1.36280318576938
H           0.18528723570437   -2.39915919265286   -0.21313886162454
H          -0.51639443940470   -3.43722114781922    0.93906708946605
