    23
        -45.36831555  Gyration_radius:  2.34530312191 Dipole_moment: 5.164
 S           0.19777530794358   -1.16917556495925    1.32817570805897
O          -0.45678963056987   -2.46237415060746    1.14918601339572
O           1.25489610134675   -0.96403816223716    0.34678844703718
O          -0.75776085435622   -0.08531309723353    1.36183778194573
O           0.89789037765235   -1.20562098557927    2.74632664211079
H           1.49337477450719   -1.94990175004388    2.71579704825478
O          -0.21136485687754    1.96151997014618   -1.94283736060402
H          -0.90131884772842    2.55139001115399   -2.24660391817293
O           2.64964905600731    1.32163554027582    0.49472120216159
H           2.21647887588458    0.44553251892318    0.48578435515348
H           2.98512438336619    1.45795675232292   -0.39379330301699
O          -0.15944149572665   -0.68191982304298   -1.90908901992477
H          -0.16590262625232    0.29809131337453   -2.03879643178828
H           0.50112115734390   -0.83857913543130   -1.20263141499534
H          -1.39170294427700   -1.09591956865189   -1.21900803990457
O           0.13468471177924    2.35723043641850    0.62470585639618
H           1.09690470670237    2.22077541229368    0.71642618305641
H          -0.06970794771862    2.17327675529683   -0.97855605376668
H          -0.26117501312075    1.55212982522716    1.00461018785789
N          -2.14482129570966   -1.40704130119717   -0.47089607668839
H          -1.58748662326053   -2.05558940003509    0.17187087353377
H          -2.97992228085367   -1.82984373501567   -0.86242648063630
H          -2.34050502610269   -0.59422186147306    0.11840778043321
