    23
        -45.37705560  Gyration_radius:  2.29131963437 Dipole_moment: 4.744
 S          -0.99260332357040   -0.31894382406762   -1.38268320543740
O          -1.48695479058393   -0.10712004329050   -0.02316425100501
O           0.02970028554577    0.68109249265692   -1.71430243043362
O          -0.54159870653304   -1.65696447811354   -1.63339426975826
O          -2.23402392404116   -0.01941849092912   -2.31617276064212
H          -2.77724308186000    0.53384927141458   -1.76353286476627
O          -0.82544478734657   -1.85626338588284    1.92744050648469
H          -1.22501399506181   -1.33716120707736    1.20448313165125
O           0.00470910770333    2.99387777571475   -0.38384367406724
H          -0.02969506676226    2.18358969814630   -0.93364717477740
H           0.10463704731457    3.72792412890825   -0.99063789349824
O           1.14464424618254   -2.53020915440323    0.23577104728472
H           0.50678437853122   -2.53402832096299    0.98013271630756
H           0.57553777600104   -2.46982139018588   -0.55796002235621
H           1.66658411062992   -1.09449915065455    0.21605198878221
O           0.08749681727285    1.21668431076011    1.68841131817983
H          -0.64795230814918   -1.22852035106485    2.63180936635248
H           0.09897626377373    2.10899196248942    1.31281257789872
H          -0.61987278842063    0.76650111483936    1.18057963085912
N           1.80262113861347   -0.02423817908562    0.11179469746785
H           1.27931091128136    0.25829844501966   -0.75301997971074
H           2.78220936285977    0.23357016201086    0.06066033562315
H           1.29719132616471    0.47280861400724    0.90241121984396
