    23
        -45.37063537  Gyration_radius:  2.44915918518 Dipole_moment: 4.621
 S           0.06493840028412    2.15189712822695   -0.84054709205184
O          -1.23428363158672    2.26462450956830   -1.46717915560070
O           0.01632173124632    2.16133354833116    0.60760583836438
O           0.86197942146123    1.02496453860664   -1.33213990759772
O           0.87371406878492    3.45085547529482   -1.29079821482023
H           0.18011633856266    4.09805500338791   -1.36926060286043
O          -1.62262236218289   -1.50240795322908    0.56440466770878
H          -2.51888616496615   -1.82998090945883    0.65239396943593
O           0.65530597427066   -2.93747573540476    0.24827288083908
H          -0.22716730418973   -2.51549533428227    0.31980785658937
H           0.69457797276698   -3.60253602520833    0.93709300640530
O          -1.49008769291204   -0.31626375315149   -1.74787935933050
H          -1.61338829952690    0.65638380185196   -1.67629118561826
H          -0.57451233372026   -0.39303203294755   -2.03884493866035
H          -1.59880519777607   -1.01912782295222   -0.31169198599396
O          -0.12861266618758    0.12822381694213    2.25417044677125
H           1.12095210138546   -0.23695727020653    1.38894825247734
H          -0.19664449887500    1.00672020126059    1.81915009703262
H          -0.81211895292391   -0.41821409308887    1.83078021958742
N           1.76879065417573   -0.49085274507381    0.57047903983248
H           2.74653285920925   -0.34576513256163    0.79316029367102
H           1.46856029149379    0.14635816286139   -0.23609677995768
H           1.56533931120406   -1.48130738875765    0.32446265377178
