    23
        -45.37063540  Gyration_radius:  2.44917289884 Dipole_moment: 4.622
 S           1.71215644163548    1.10304120486823    1.09240385286290
O           2.85291586616076    0.27413028773526    0.76841785267922
O           1.22222401680562    1.88318924518563   -0.02609018334099
O           0.61989491894919    0.37590515235942    1.74443838782350
O           2.22923670526976    2.13525531502733    2.19302759760266
H           3.13952458265129    2.25325796922682    1.94100498342245
O          -0.17149787111889   -1.46892700915630   -1.73824815667483
H           0.15307933622304   -2.04482667553200   -2.43202354726623
O          -2.48858967469908   -1.67533467815843   -0.34645201265405
H          -1.66254680761400   -1.71890888713973   -0.87343762990588
H          -3.21229814686377   -1.75503999195257   -0.96951103982220
O          -0.65228098464664    1.27235662213169   -1.75215159284555
H          -1.38722817158482    1.08082448296424   -0.38590161725255
H           0.14108270486472    1.63108214311190   -1.29663492939991
H          -0.42554939765199    0.35248439208194   -1.97002007141254
O           1.38357614603531   -1.83340860149540    0.31597294947660
H           2.09116519341959   -1.15344634021637    0.37419053573955
H           0.84836095032658   -1.64984824551168    1.09614120806953
H           0.45751478579717   -1.59416065429235   -0.96990195816005
N          -1.67695623955149    0.73247377774956    0.58812957956630
H          -2.12270379219965   -0.19799903228701    0.45239868621033
H          -2.29005287279156    1.38382414349519    1.06402420546730
H          -0.76102769944128    0.61407538980578    1.13022287985192
