    23
        -45.37063511  Gyration_radius:  2.4492782152 Dipole_moment: 4.619
 S           0.49564962166679   -1.14413085316932   -1.94640922051624
O           1.66666728296594   -0.43668522660069   -2.41719217245913
O           0.74207620814160   -1.96864565672482   -0.78069261598987
O          -0.67243215076368   -0.28315955037070   -1.74334697781347
O           0.07925561615015   -2.12383592694577   -3.13426373965331
H           0.92199962095033   -2.32607622602515   -3.52783711315596
O           1.13495566554933    1.33220423779338    1.46538111297601
H           1.88831503945265    1.82188869440883    1.79848868233578
O          -1.49749425179532    1.83468691811423    1.87371969224705
H          -1.64861612580818    1.92034495895192    2.81611445860291
H          -0.52634769614610    1.76975953987278    1.75315855748461
O           0.46552347295525   -1.35385854185948    1.75135092718120
H          -0.94022744823347   -0.99464575745347    1.16992054308167
H           0.74502469368279   -1.73626614889334    0.89041248858460
H           0.88079743284673   -0.47554097445519    1.78542813437990
O           1.06586835396655    1.73601770529131   -1.10433804240150
H           1.49361862695362    1.00908089743024   -1.60930651091121
H           0.14128678605253    1.66031960778372   -1.36547278379410
H           1.14419484397316    1.46815378544956    0.47388819583458
N          -1.73928373157622   -0.54677646604340    0.60866168621677
H          -1.36758497349103   -0.45876986593537   -0.39180073354126
H          -1.88950962030356    0.40235858026721    1.00796971588415
H          -2.58373726720751   -1.10642374086225    0.62616572545053
