    23
        -45.37063523  Gyration_radius:  2.4491452776 Dipole_moment: 4.616
 S           0.81155645645394    2.01675947050345    0.78447582237716
O          -0.33740246999050    2.88115699992513    0.62294839661048
O           0.67293884044211    1.05810589489809    1.86208964940805
O           1.23324897548078    1.35729976901746   -0.45415622070732
O           2.02375242610428    2.98031134178493    1.16696899214384
H           1.58196831572403    3.67104110555703    1.65046779324692
O          -2.05453874534332   -0.95077278116934   -0.29097147253436
H          -3.01229289637867   -0.98204743556441   -0.28652577503800
O          -0.34581826043123   -2.35436229700059   -1.85917530762498
H          -0.56853355911258   -3.28421229804057   -1.79564098228276
H          -1.04765252939667   -1.86744116664223   -1.37726515283198
O          -0.22935791829585   -1.39993906452574    1.76150033700366
H          -1.02297786611809   -1.29461185371874    1.21003029064943
H           0.89007264242817   -1.41424353500502    0.67040232244310
H           0.01869671854846   -0.48807275401492    2.03083754919101
O          -1.39290052441588    1.38265134365322   -1.23326773391020
H          -1.19990852875379    2.03210210938313   -0.52093389552993
H          -0.53413335348860    1.27003923089101   -1.65590506052991
H          -1.81776485555048   -0.03601510347573   -0.62101517852676
N           1.47390381735412   -1.21592344233911   -0.20924773700938
H           0.97845582169377   -1.66787223321886   -1.00496144377784
H           2.42911610781607   -1.54173349013875   -0.11960816946803
H           1.44957139525464   -0.15221983073391   -0.33104702331363
