    23
        -45.37063544  Gyration_radius:  2.44913960143 Dipole_moment: 4.620
 S          -0.31698633351447   -2.27024264327431   -0.29428473728001
O           1.04133423915275   -1.88874179375644   -0.62463648551526
O          -0.47809009949709   -2.72577009185544    1.06949908852754
O          -1.26604514603543   -1.22399310383812   -0.68355491806764
O          -0.68903894059064   -3.52041901846340   -1.21231320665386
H          -0.40408247595709   -4.25227079154662   -0.67448812806082
O           0.67793843636955    1.36443397710294    1.69922124816283
H           0.95726783048529    1.57887627154881    2.59047453626931
O          -0.62537097831420    2.95375546516682   -0.06827025520810
H          -0.14713581142248    3.78066374768889   -0.14439407459218
H          -0.19772142606519    2.45159977328015    0.65759959277951
O           2.15575592550061    0.47877119105071   -0.48664684435096
H           1.84819651762339    0.78979328631279    0.38152258490076
H           1.96989276272725   -0.48611976826703   -0.49406993043419
H           0.89402338500935    0.75891444658302   -1.36602285288484
O          -1.23896073125722   -0.38091541113316    1.92266568498795
H          -1.80298865589002   -0.26330390495939    1.15010604538317
H          -0.91747562993090   -1.30390905610615    1.81724417560004
H          -0.03281564887048    0.66723381228990    1.80161912396065
N          -0.11720276832994    0.86416036938883   -1.71290491056367
H          -0.50496878316384    1.71197573991839   -1.25055930191033
H          -0.63093882728433   -0.00451550644111   -1.35485002149246
H          -0.17458683067317    0.92002299927241   -2.72295642355700
