    23
        -45.37063547  Gyration_radius:  2.44910309368 Dipole_moment: 4.621
 S          -1.70971744294122   -1.54538185784591    0.17185689612327
O          -0.43483464627343   -2.14230949117048    0.51539196429084
O          -2.44507304550310   -1.04644601341711    1.31362346399451
O          -1.55748595885197   -0.56542605593086   -0.90674859036788
O          -2.61528636456416   -2.70088378668708   -0.45170517545876
H          -3.04357893685073   -3.05498621761918    0.32110984963095
O           1.01572405020174    1.49746549611432    1.39043495256706
H           1.15183085539349    1.97951629105840    2.20741859049424
O           1.61126812023199    2.28925295239109   -1.13281784155640
H           1.39590710155970    2.12047845355126   -0.19098472065650
H           2.52608745211336    2.57366514498996   -1.15515081916391
O           1.92781163045819   -1.01314423902506    0.60857659467833
H           1.73029474117621   -0.18370932481043    1.07554984331824
H           1.13887173269095   -1.58156160422448    0.75039550789917
H           1.45074622482914   -0.66002468673410   -0.83752523560511
O          -1.55660568990060    1.38783923317701    1.01393466345121
H          -1.68835853296277    1.33743943244457    0.06055928175280
H          -1.94393607410786    0.54172333381890    1.33084070732462
H           0.02311040012146    1.43321088044820    1.27941366752084
N           0.90441114457640   -0.26731609758712   -1.67498135488319
H          -0.12839742136958   -0.41083976525961   -1.43128450715889
H           1.13428877255872   -0.73990982761040   -2.54125317392735
H           1.11292189732990    0.75134773994938   -1.71665454427092
