    23
        -45.37063545  Gyration_radius:  2.44912561029 Dipole_moment: 4.622
 S          -1.37487084233878   -1.82161723218753   -0.36417498390907
O          -0.79995443373984   -1.86347738557322    0.96527439063054
O          -2.68075260160084   -1.20063796505233   -0.41410124901701
O          -0.42202388356462   -1.27142159181434   -1.33174723500301
O          -1.59870952886888   -3.33195845846015   -0.82562990494427
H          -2.47693109434469   -3.50858288427610   -0.50378349378121
O          -0.24429176249954    2.10947537308142    0.83433324553879
H          -0.72367303120361    2.85849009648277    1.19142339967806
O           2.05696229177741    2.12865173477917   -0.59822816812471
H           2.70936633636417    2.64287865582145   -0.12048717077079
H           1.21021055822572    2.23686629850704   -0.11528741013797
O           0.79866046735100   -0.13255656339198    2.11150367653589
H           1.55765056529209   -0.45112014236719    0.78279651055867
H           0.37150387134725    0.71006678377990    1.88218603013180
H           0.12680316570534   -0.82239349283874    1.91556002590888
O          -1.71519482574235    1.13050128866631   -1.07584238919082
H          -2.25950349804264    0.36940471294646   -0.77431153486042
H          -0.83827086425420    1.72374007557620    0.12714704990784
H          -1.10791127950584    0.72194364526389   -1.70277970326698
N           1.82553645687474   -0.54664368916355   -0.25317155051751
H           0.93922649146990   -0.89395174033257   -0.74357045485157
H           2.58891503117914   -1.19745648324404   -0.39570565881588
H           2.05725243014750    0.40979897377754   -0.59140339169245
