    23
        -45.37063521  Gyration_radius:  2.44918985921 Dipole_moment: 4.619
 S           1.22345726807915    1.83441086178101    0.69318488174692
O           2.34196436839887    1.20820358787973    1.36414728222611
O           1.25961631220590    1.70055221072902   -0.74912493194824
O          -0.08240968065431    1.43609188716317    1.22509680005349
O           1.34106790002442    3.39059664139274    1.02279876413793
H           2.28322584946502    3.50707109871006    1.09173613118854
O           0.41942558344209   -2.20774061654653   -0.39859307147726
H           0.94967164583654   -3.00541055117323   -0.42842718990126
O          -2.26428058881889   -1.99636019794785   -0.07961421061655
H          -2.69315723707517   -2.56142046534162   -0.72387065615165
H          -1.30342205215210   -2.18222079348050   -0.14341033709980
O           0.16501720347980   -0.14655578407775   -2.25109431249927
H           0.74151953416091    0.55338729453239   -1.87253584987997
H           0.39665483734400   -0.95615693026801   -1.76534491553554
H          -1.05351469918082    0.36235238338814   -1.41475194886246
O           1.02619672190036   -0.99691669240030    1.82323659975758
H           0.24341499708256   -0.49777887513033    2.08186745510009
H           0.69069655466973   -1.73701145256929    0.44193663314371
H           1.69908679713455   -0.29214894458990    1.69311099896130
N          -1.72100748314197    0.60279547981131   -0.60808434495766
H          -2.13963976367799   -0.29487348654666   -0.28896551299805
H          -2.42619712653983    1.27793015736494   -0.87922110238676
H          -1.09738697198555    1.00120320730211    0.16592285799171
