    23
        -45.37583673  Gyration_radius:  2.28660035855 Dipole_moment: 1.599
 S           0.58887325643144    0.70696538827801    1.35933439434945
O          -0.32925169455265    1.62024154401155    0.68874729138166
O          -0.02647598812573   -0.56761154072411    1.67494088609691
O           1.83264288568292    0.53913110143703    0.63392553944611
O           0.93925611685259    1.40763439114140    2.73551746280506
H           1.60790559223525    0.84022963515025    3.10615184114608
O           1.55323095551745   -2.05230324166534   -0.30662081821796
H           1.63651124875281   -1.26184296223859    0.25009531030536
O          -2.90413570817659    0.81690261676441    0.70675904163498
H          -3.25336510129487    0.82463722068068    1.59895857362686
H          -2.01060448563483    1.20939339253502    0.76421168351025
O          -1.61536272626218   -1.35138345384757   -0.28526669565236
H           0.76354133753251   -2.50689037836794   -0.00690718920593
H          -1.02384587349867   -1.22705061063417    0.48995578169998
H          -2.38961249182219   -0.80785133580585   -0.05173868599269
O           2.14431480150241   -0.03811435941598   -2.02266830642496
H           2.35444623971203    0.39368526379559   -1.17690696121874
H           2.15813730598746   -0.98295822833179   -1.79642592687825
H           0.59361101192885    0.26699294495969   -1.98584646081917
N          -0.41207428977685    0.49462885721459   -1.70545805574805
H          -0.36729913533919    1.14084827765859   -0.88152723646956
H          -0.90470805990311   -0.37398551204632   -1.31959977429669
H          -0.93573520887676    0.90870101886227   -2.46963166429431
