    23
        -45.37063538  Gyration_radius:  2.44917394589 Dipole_moment: 4.621
 S           1.65506794939183   -1.01520565862627    1.25363524254457
O           1.36359838717540   -1.78289179890093    0.05975940332264
O           2.75586430503876   -0.08956745059185    1.09603196259440
O           0.43919599435294   -0.40056421847135    1.79288323939934
O           2.12058048256085   -2.05033182760969    2.37436192762322
H           3.06077230861099   -2.08765766442438    2.23036889459873
O          -0.08371871563749    1.52353574084402   -1.69725249796016
H           0.27270759221973    2.15104955178936   -2.32772609740931
O          -2.55702345761517    1.49499653165667   -0.58837032727202
H          -3.20685597925995    1.54672724915400   -1.29077987737246
H          -1.68103492777390    1.62301483430358   -1.01053764410185
O           1.18554825907214    1.91802582201247    0.53981952311258
H           1.93396402023452    1.29211342598457    0.66000278746232
H           0.43869333881251    1.66371021533702   -0.85515945678789
H           0.57918224459021    1.66085411185054    1.24338788862910
O          -0.33796768335958   -1.24367587182726   -1.85837351776746
H          -0.16168425936484   -0.30101179715667   -2.01740294965953
H           0.42256069131905   -1.56011252669497   -1.32254167014748
H          -1.24132869211019   -1.16577373596425   -0.58497817531027
N          -1.67031383792543   -0.88139141346336    0.35793964103852
H          -2.28082531191793   -1.59659190741001    0.73528107429717
H          -2.17019151993240    0.01753456909297    0.19990519681156
H          -0.83679119847618   -0.71678619090275    1.00974543236184
