    23
        -45.37063522  Gyration_radius:  2.44908516648 Dipole_moment: 4.614
 S          -1.56372913537739   -1.45604782143079   -0.88031013876135
O          -0.72033857420475   -0.90740982231649   -1.92302107307221
O          -1.10351632307817   -2.72890355824289   -0.36904002999462
O          -1.82487324690184   -0.46022051538456    0.16227838175818
O          -2.98947515320573   -1.74565478267280   -1.53414832455225
H          -2.88622470069574   -2.63901128097317   -1.84608308491237
O           2.13250739660442   -0.15464927219773    0.79928608782047
H           2.93977168392226   -0.60232592567328    1.05656303896995
O           1.13128242662770    2.17100247624358    1.76823783006833
H           1.81679637059367    2.83900341620169    1.72311250313267
H           1.55521080180210    1.32160055842447    1.52194148422608
O           0.16362664578177   -1.63746058570756    1.63301546820770
H           1.38758991055758   -0.75436709710815    1.09467752664888
H          -0.57424778162116   -1.03959414747071    1.79699331988757
H          -0.18666242707070   -2.22454004950623    0.92655157056327
O           1.29445283191333    0.75237237369074   -1.69466333688577
H           1.77749599983719    0.37175701539998   -0.94175766346064
H           0.66747179231372    0.05092558948270   -1.97824996143070
H           0.14960188167814    1.51837451192590   -0.95565136770846
N          -0.62089584007365    1.80019515205974   -0.26214172230746
H          -1.18500024608274    0.90673386681724   -0.08764970587440
H          -1.21867157061843    2.53263437096292   -0.62657305180041
H          -0.14217274271460    2.08558551747066    0.61663226948841
