    23
        -45.37063508  Gyration_radius:  2.44923870294 Dipole_moment: 4.619
 S          -1.83757636961351    0.12379327105972   -1.39672552041602
O          -2.33269150905051   -1.23517892723520   -1.35699402973197
O          -2.06483399300379    0.86323525692575   -0.17151492840043
O          -0.43977492215521    0.23068105183725   -1.82306506898989
O          -2.67167466333591    0.85138339589647   -2.54529926557651
H          -3.50794717827449    0.39926781328964   -2.49818679851555
O           0.70355743516601   -1.37183211519934    1.68286566514182
H           0.66090228701763   -2.12806868892806    2.26990311837704
O           2.90686867888547   -0.05150371055191    0.81627641892692
H           2.18365255999933   -0.62303621766482    1.15121593865090
H           3.43759234109549    0.18840379348954    1.57729927865164
O          -0.47793489793479    1.13899580905969    1.89521257995740
H          -1.25018556243397    1.06332114164146    1.29229955882276
H          -0.16888279501262    0.22679841712985    2.02724717619456
H           0.43846993032783    1.59420623579614    0.71363518339975
O          -0.01586176989440   -2.21804150978795   -0.67033768404743
H           0.38992402535708   -1.70546531252436    0.79295019557967
H          -0.96512985537650   -2.04321532312681   -0.85664732135813
H           0.43316792377523   -1.65371935857518   -1.30964093472507
N           1.02428934104470    1.61587630473761   -0.18661997284879
H           1.22094825436037    2.56041263669198   -0.49611877437428
H           0.43957785137122    1.09523460147256   -0.91721922278914
H           1.89354285767393    1.07845144457066    0.00946442808860
