    23
        -45.38066436  Gyration_radius:  2.27668000451 Dipole_moment: 2.542
 S          -1.61921666172036   -0.98397475326771   -0.45223106605428
O          -0.70581666189143   -1.64528117474312    0.47484487013552
O          -1.80045935154282    0.42071572792931   -0.10169539607367
O          -1.25474979902554   -1.17618733231550   -1.83786894901398
O          -3.02753498968873   -1.68305658327759   -0.26430950498277
H          -3.22062543452896   -1.59500648012235    0.66444459468413
O           1.48755888156068    1.23234870493584    1.57673169597206
H           1.95776429340564    1.67569758079913    2.28354931893056
O           0.21911347908366    2.06616316500243   -0.74057673312735
H          -0.63504631449732    1.62573483087061   -0.55073917300891
H           0.73691618352465    1.97683605037498    0.07881939465203
O           1.89994359951287   -1.09929261803236    0.14045786578846
H           1.01538025984075   -1.48232158303926    0.31446306325378
H           1.59702931522678   -0.50534574691147   -1.30657660503155
H           1.95418490322016   -0.31670895249740    0.71697519683432
O          -0.81485028591643    0.22020710195226    2.34033554759783
H          -1.35534277375643    0.61968905785175    1.63548899553926
H          -0.66552628943241   -0.67484333077952    1.98591029271646
H           0.63894636633707    0.89129076538223    1.97145831257903
N           1.06336930794006   -0.01165812060513   -2.08585634556852
H           1.56770277307307    0.01205877682575   -2.96451190908380
H           0.82003590185579    0.95673337214550   -1.71339128652381
H           0.14122329740816   -0.52379848842235   -2.16572216021943
