    23
        -45.37063528  Gyration_radius:  2.4491862541 Dipole_moment: 4.622
 S          -1.52242486303803   -1.51387496519574    0.85638519934078
O          -0.29312514532818   -2.17567711517277    0.46858096356006
O          -1.56486806129385   -1.13612431531824    2.25236240615238
O          -1.84101702211564   -0.41757273182499   -0.06207170678214
O          -2.70417112122848   -2.56701909964330    0.65987988290606
H          -2.73041568829007   -2.99493377916840    1.50974333807110
O           1.68329771049091    1.29777544556266    0.83289509151629
H           2.23995987688095    1.67673608013406    1.51467859399692
O           1.02325209662599    2.36867746515028   -1.56835954642919
H           1.82831731212800    2.63368288287227   -2.01545510838204
H           1.28542035021140    2.09448734722144   -0.66390977349033
O           1.89166111878346   -1.12360762833121   -0.52368984927210
H           1.23146258198288   -1.68533612150824   -0.06078834085396
H           0.79649240464315   -0.59065978939396   -1.50325736452705
H           2.01571094384881   -0.35065643514732    0.05259720076520
O          -0.74280432213212    1.29309452632605    1.77339851864618
H          -1.32776655173682    1.35846511947746    1.01028792881149
H          -0.99209671571307    0.42573542216744    2.16311484843770
H           0.76230537192177    1.26979066459200    1.22381377915091
N          -0.05729251858587   -0.08878936289285   -1.91955030204205
H           0.18346893722224    0.92247478165945   -1.96613675665028
H          -0.84550462306678   -0.23591858110520   -1.20979527754089
H          -0.31986209221473   -0.46074982046600   -2.82472370538724
