    23
        -45.38065942  Gyration_radius:  2.2767216145 Dipole_moment: 2.547
 S          -1.61381197341568    1.08421230545357    0.12192340377003
O          -0.96122971814009    0.75571269108508    1.38428243775240
O          -0.64038521920557    1.50354394044585   -0.88262234855405
O          -2.49294318013770    0.03515022571682   -0.34394630590459
O          -2.53264971304401    2.34470010773114    0.39454888983532
H          -1.92266956624305    3.06173199913404    0.54058432723582
O           2.45410619597714   -0.37131434531401    0.24002653089047
H           3.40197223224318   -0.37464921423106    0.37664765670108
O           0.31366138220867   -1.60068395502019    1.49605592768567
H          -0.19450700681449   -0.77793926916370    1.65253869990430
H           1.18353900126996   -1.30266254192779    1.17641470185147
O           1.33323344620685    1.93440210186573    0.81915035950831
H           0.84111161038100    2.03127790432818   -0.01593197189400
H           0.64365920367452    1.58304979226332    1.41039271473900
H           2.13544906162018    0.53935620922944    0.48793266001738
O           0.80577547304148   -0.47192567414715   -1.98380415990776
H           1.53954434626989   -0.48377861264386   -1.34423728418656
H          -0.22346436038414   -1.55426321096337   -1.42602350155788
H           0.28943631719515    0.33092768756115   -1.76416770594227
N          -0.92946816146707   -2.00611793571955   -0.76834412466357
H          -1.70051028516403   -1.29187709467847   -0.64844749338451
H          -0.45141363184422   -2.07289845640684    0.18210268547636
H          -1.27843544424002   -2.89595464460135   -1.10507609937637
