    23
        -45.38066429  Gyration_radius:  2.27661486989 Dipole_moment: 2.542
 S          -0.88549280935735   -0.91833879262980   -1.47179881683612
O          -0.25099662111233   -1.77391987639848   -0.47343801095466
O          -1.64156604167105    0.15782440892440   -0.84009719899359
O           0.03770747395998   -0.44272242490798   -2.47735030095010
O          -1.93756162186668   -1.82582291893938   -2.23134046004971
H          -2.49926674297203   -2.17388424857267   -1.54506070612047
O           0.24689292871413    0.63764412119219    2.39769996517458
H           0.22188384870498    0.80212447669521    3.34081256540002
O          -0.20015366758581    2.19139789567424    0.14930516334252
H          -0.86246125940586    1.59346069201518   -0.25509028686904
H          -0.04974954858818    1.83431360514248    1.04238353900433
O           1.93657261254681   -0.76551433277831    0.70918050559138
H           1.23525909299615   -1.30984144441187    0.29533619993814
H           2.05224466143429    0.34219937335931   -0.43110532920436
H           1.49836227895358   -0.30794417294588    1.44809970262059
O          -1.69529307399851   -0.92678452832691    1.56760721441938
H          -0.52392176600218    0.04053133583025    2.19373527919290
H          -2.01279931290544   -0.34594340558486    0.85331606705174
H          -1.13229484071170   -1.55027044324353    1.07408891844158
N           1.73914943650746    1.03955750457053   -1.17344018440706
H           2.51062092528080    1.51111184741132   -1.63108284997856
H           1.06408127944980    1.70744999319674   -0.68934302935911
H           1.14878276764077    0.48337133472444   -1.85241794643628
