    23
        -45.38066463  Gyration_radius:  2.27665433459 Dipole_moment: 2.541
 S          -1.61335499279494    0.73850154647599    0.80377910370223
O          -1.62896883523800    0.59568153444322   -0.64822325967655
O          -1.06637582436726   -0.45336260813306    1.44504594437575
O          -0.97546651506313    1.95917058620184    1.24302465610352
O          -3.12487951002211    0.83895898900807    1.26467516136258
H          -3.51279370076099    0.00726385309699    1.00887040597606
O           1.26857294778113   -1.76124218189819   -1.22688208714633
H           1.63042533692962   -2.51266081063546   -1.69769238616599
O           0.73414504060814    0.87582022247033   -1.88634922265034
H          -0.20296851369800    0.86180053038367   -1.60143122080437
H           1.02455071104713   -0.05232111500666   -1.84478947088754
O           1.59968575481415   -0.73024446692388    1.32182414939306
H           1.74649424338239    0.80069250438818    0.90659093203557
H           0.64694539495969   -0.71534599791815    1.54874887103854
H           1.65119265554586   -1.21573585263033    0.47957301357032
O          -1.28593228615899   -2.02280045064211   -0.66670131220007
H           0.30610822432392   -1.96313668030057   -1.06796615959527
H          -1.21349124477447   -1.81483601775943    0.28228768571775
H          -1.57138741664501   -1.16597453641720   -1.03126529188280
N           1.50064449725074    1.73718885229665    0.46113006103442
H           1.34640900260095    1.54293872833423   -0.57532621751154
H           2.19164182422600    2.45767822208071    0.63533108351994
H           0.54880319603700    1.99196513908274    0.84574555069719
