    23
        -45.38066436  Gyration_radius:  2.27661578778 Dipole_moment: 2.544
 S           0.14028774319641    0.66590025278850    1.82510601982091
O           1.38771289665196    0.23150078780866    1.20347248459268
O          -0.65122572159947    1.47804749794298    0.90720442777179
O          -0.61164406435469   -0.42437833452181    2.40434572775742
O           0.54799521176667    1.61048176397943    3.02880605013608
H           1.08624493107620    2.28973444856965    2.63311967945562
O           0.43006974231574    0.12425466308023   -2.45257820191863
H           0.66982380492883    0.29372500270085   -3.36418358722879
O          -1.94543991409442    0.14603589282851   -1.02780533582489
H          -1.24120365573121    0.15583038905738   -1.69973384813064
H          -1.63493241161931    0.75409849912054   -0.32529191008918
O           1.31412652191916    1.95881450570276   -0.79112245589969
H           0.81072626773782    0.87204143850102   -1.91566488663567
H           0.46299683281479    2.13793713166545   -0.35325496356956
H           1.73092400692318    1.34432338936992   -0.16016768338874
O           1.17748700924994   -1.76806957809309   -0.57393304755995
H          -0.28196946045607   -2.10559938453162   -0.03095565995625
H           1.02117439231641   -1.23081696325578   -1.37060493268510
H           1.43181320953540   -1.12546638523052    0.12012680966887
N          -1.24979913301187   -1.94222738432642    0.38418472155524
H          -1.08284796688354   -1.45126431064615    1.30610978660657
H          -1.78793648847369   -2.79388808933335    0.49362566170678
H          -1.72438375421689   -1.22101525317537   -0.24080483618169
