    23
        -45.36629894  Gyration_radius:  2.36433750799 Dipole_moment: 2.433
 S          -0.34663285436158   -1.67944842781813    0.64024713873578
O           0.13184618021391   -1.46749354545567   -0.72392662768366
O           0.66363847097247   -2.24289016219464    1.50029866342764
O          -1.00700798896633   -0.49470880213322    1.15892035669942
O          -1.49453668062287   -2.77831369089114    0.53151091799813
H          -0.98440017286508   -3.58080007820397    0.55374814819441
O           1.30236631453223    1.87389790923120   -1.47140736364722
H           2.13109925093580    1.42430004445514   -1.65021507298183
O           2.74735027798830   -0.62161424323648    1.33016645640143
H           2.03090098741925   -1.29306255025152    1.33694868773577
H           3.23239660145695   -0.75060602798567    2.14754877981398
O           0.94802115609600    1.35769640405836    1.05277399053144
H           0.18181223781947    0.76927675624912    1.17668924432582
H           1.72252237599192    0.77960880347192    1.20987152013227
H           1.16539182114204    1.79364164250626   -0.48203805338339
O          -0.66494327379329    0.42496652509463   -2.13945045446355
H          -0.36421917669119   -0.42395538831357   -1.62865110012882
H          -1.47025034322788    0.82248196401849   -1.50575112702698
H           0.12928167368076    1.06573927921420   -1.99498192706034
N          -2.38193571069393    1.21568126606461   -0.48360710340983
H          -2.04841807796310    0.59044772004071    0.26246432261648
H          -3.36508057098364    1.04302313693673   -0.64477136033955
H          -2.25920249807006    2.17213145514332   -0.17638803648951
