    23
        -45.38066406  Gyration_radius:  2.27661872212 Dipole_moment: 2.544
 S           0.24242291987513   -0.02085577265846    1.93266903936925
O          -1.13788501450154   -0.04952711015772    1.45793082871907
O           1.07979932029115   -0.94394934083260    1.17439823142383
O           0.79013485359728    1.31543512820696    1.99527750460480
O           0.21183052146540   -0.55650689947515    3.42248793944537
H          -0.20284341192962   -1.41229521558801    3.36450745097699
O          -0.68897388536810   -1.02268213370010   -2.16679876697233
H          -0.99313184788584   -1.53116952890590   -2.91922302181839
O           1.78506498052185   -0.14179408054598   -1.28579452832386
H           1.71109631865517   -0.51984294106636   -0.38506773074137
H           1.02443452310665   -0.50260259696956   -1.77446547184984
O          -1.61285744203151    1.23233162272098   -0.85137013644332
H          -0.21402620772644    1.98480796649123   -0.72729240666611
H          -1.43706893327883    0.49305908833429   -1.45990079589952
H          -1.62581520080040    0.82924552548499    0.04115264222802
O          -0.91803585236268   -2.30944800301947    0.11335921258451
H          -0.81964850543222   -1.59820279587337   -1.36425740198566
H          -0.00040608301642   -2.18105475808923    0.41240109736160
H          -1.37964647678373   -1.59838374631439    0.59399418217120
N           0.80901875273548    2.14497783922139   -0.47535730585234
H           1.35556405465504    1.34992705466066   -0.92823843519669
H           0.87384668885978    1.97478713517022    0.56662005933655
H           1.14712590735351    3.06374356290605   -0.73703217645134
