    23
        -45.38066456  Gyration_radius:  2.27659332068 Dipole_moment: 2.544
 S          -1.47524375088241   -1.18303807430379   -0.46717036650063
O          -0.53815140010438   -1.69311761860184    0.52892053959169
O          -1.82824003828910    0.20660675481994   -0.19602453087465
O          -1.02766340402448   -1.39561838478738   -1.82513736889977
O          -2.80447298256786   -2.02770674472483   -0.30231514300728
H          -3.05255808008259   -1.91468259098816    0.61057367374290
O           1.26451093568191    1.46545326671797    1.57112371509265
H           1.64945191675613    1.99056457951972    2.27348696025367
O           0.02027778164671    2.04221013517260   -0.83597173626832
H          -0.78691685280625    1.51623131522062   -0.65901310395666
H           0.50602919918965    2.05062016705401    0.00750479906854
O           2.00200365680982   -0.86718128975612    0.27444130899264
H           1.94077456562680   -0.05773834677278    0.81184906708922
H           1.15908190144435   -1.34085339428337    0.43108943027879
H           1.70222184004560   -0.37874089045359   -1.21205781901415
O          -0.94225670488086    0.23264627367817    2.29055731351004
H          -0.67609531247305   -0.65623297731286    1.99445621562820
H           0.44186220044008    1.04831380586703    1.94739569051695
H          -1.48812422158206    0.53094839183125    1.54084531318364
N           1.15394010940424    0.01442104559799   -2.03701227371561
H           1.69315372416710    0.05480402040847   -2.89404211629076
H           0.78650101318906    0.96497487346694   -1.72495475194369
H           0.29991391325207   -0.60288431738272   -2.12854481645255
