    23
        -45.37611094  Gyration_radius:  2.37888731441 Dipole_moment: 2.499
 S          -0.77394563757526    1.81394534516871   -0.33506583468860
O           0.23811718177609    1.72002037684017    0.70599746645445
O          -0.25422383242479    1.59855789874882   -1.66595937739463
O          -1.92476157080037    0.96374483886915   -0.04021552899883
O          -1.30034733348374    3.30858689395375   -0.29837212129299
H          -1.75149225169577    3.35315782500382   -1.13440894041388
O          -0.50104100848253   -2.68088401384597   -1.03870993410578
H          -1.12928925942903   -2.81088874179021   -1.75059708468965
O           2.49796095947340    0.44837521247132    0.14376803939696
H           1.70432415547134    1.00895915994241    0.29250753955110
H           3.17669689017259    1.03297950856891   -0.19614868692870
O           1.02583543013101   -0.73553287944802   -1.84583026622218
H           0.51048503507437    0.09287854621754   -1.92746334184650
H           1.71268386576466   -0.52475824713020   -1.19017089020339
H           0.14915225674464   -2.00243337687574   -1.37972458677312
O           0.80292126886699   -0.30246771301688    2.38170852459049
H           0.56837705691990    0.57651252113655    2.02576287092365
H          -0.45082807963093   -1.05680633931107    1.66711234642316
H           1.64511585419220   -0.50909533793786    1.96019901577512
N          -1.29088045934092   -1.29089424040556    1.07254344188504
H          -1.61501098793171   -0.37039407228078    0.63575061062060
H          -2.02962811113777   -1.69770290594150    1.63555380670717
H          -1.01022139267706   -1.93586030895215    0.28176293121830
