    23
        -45.37611114  Gyration_radius:  2.37900648663 Dipole_moment: 2.486
 S          -1.59196399539782    1.02544304562155   -0.64473981923597
O          -2.23642193301327   -0.26425128663908   -0.54875645873779
O          -0.99436497253838    1.47052101584167    0.60493842252998
O          -0.63608383309109    1.09128795440908   -1.74755037277612
O          -2.73492002444106    2.07122797330265   -0.97956116144380
H          -3.21952517790564    1.58911230978574   -1.64059259442651
O           1.59263125935663   -2.20761876194344   -1.05123170230036
H           1.32931633522144   -2.64090679720842   -1.86452360685314
O          -0.48822024947952   -0.34577193786457    2.47220275656231
H          -1.21510563508552   -0.45732950708697    3.08634555107855
H          -0.78652133440979    0.32115680374569    1.81461161218089
O          -0.57287372453511   -2.12840829582846    0.38781548259041
H          -0.41714221540945   -1.70310342861881    1.24853755491508
H          -1.24361870648023   -1.55971359224551   -0.04253609734691
H           0.79346337841222   -2.25943690317504   -0.45290924585287
O           1.57030546153717    1.40315617281121    1.40264625844266
H           1.86621872888550    0.78053417222277   -0.07261780957924
H           0.67304142253642    1.71184406743466    1.17028309358725
H           1.41896800401482    0.72098789428897    2.06703314437433
N           1.77746428036675    0.43419965786739   -1.06569606544142
H           1.80918548207581   -0.62348224171150   -1.08761130941153
H           2.49854135863275    0.83667833485226   -1.65416375903830
H           0.80762610074656    0.73387337012029   -1.40192388383113
