    23
        -45.37611076  Gyration_radius:  2.37887193019 Dipole_moment: 2.494
 S          -0.99628055458155    1.65943995778729   -0.50550089094909
O          -0.17556472456968    2.25773418021669    0.52225558028530
O          -0.22862297569352    1.01502938448407   -1.56017419214975
O          -2.01107758516247    0.76219036568328    0.04152276267917
O          -1.77874147787641    2.85010277632615   -1.20015729445073
H          -2.03804002269174    3.35433078472833   -0.43663620842660
O           0.21645279221316   -1.62183828171032    2.41783002036892
H          -0.21435372589985   -1.33906997123951    3.22584477543013
O           2.28877602668874    0.35349343252147   -1.04538452072031
H           1.39461072066301    0.70711960251110   -1.24944559074302
H           2.90844866679813    1.04610359872819   -1.27831989601546
O           1.50599966462240    0.47705753120049    1.58117672656149
H           1.98974966106976    0.29404962482312    0.75740511714350
H           0.88088771359450    1.19024180106833    1.33810910864720
H           0.79171799800753   -0.85261392384609    2.14111307243226
O           0.32201105729383   -1.58598601565468   -1.94750378850802
H           1.25734515937266   -1.49178594052533   -1.73316902175200
H          -0.59622252049975   -1.83106888238147   -0.62530334203673
H           0.01448511100331   -0.66798517956268   -2.07780158612077
N          -1.23591589958687   -1.70674007618782    0.20498734654332
H          -0.68416448365562   -1.77802291375958    1.10531987605428
H          -1.99262519599126   -2.38133198239944    0.18179834354232
H          -1.61887541516701   -0.71044987283824    0.14203359221295
