    23
        -45.37611113  Gyration_radius:  2.37891367414 Dipole_moment: 2.489
 S          -0.13301547524319   -0.20305808503651    1.98562834369052
O           1.30461371254690   -0.07528772406961    1.91720273607201
O          -0.84474943532386    0.92128795174919    1.39721167494104
O          -0.60684076607791   -1.47605708244397    1.44800462065511
O          -0.50813677021707   -0.19948317307156    3.52558958085303
H           0.16556610618197   -0.77659737893392    3.86837948529837
O           1.22445777939178   -1.54288765476207   -2.15278022940186
H           1.75508822024694   -2.31409029955979   -1.94747068732718
O           0.46263384234217    2.48138032316152   -0.30486539015309
H           0.88596291192476    3.22538216021038    0.12553216953193
H           0.03463198427848    1.95981613675604    0.40999975173753
O           2.13449691394447    0.32426650141464   -0.58692009267836
H           1.96256080917565    0.09606884900666    0.34949746288907
H           1.62966568362583   -0.79519065349655   -1.62726573740874
H           1.66119653414565    1.16382467062416   -0.71799261811379
O          -2.01931918205032    1.14445203234676   -1.00858775044066
H          -1.56665526387809   -0.40566691378839   -1.21649484410965
H          -1.86110517382944    1.13543459383824   -0.04460061854873
H          -1.36599328551195    1.76725894211097   -1.34763392596317
N          -1.18988179505014   -1.38169803532794   -1.07676743665638
H          -0.27229750130928   -1.49601646713662   -1.59178251035063
H          -1.86735137776878   -2.07592505195286   -1.37224243899050
H          -0.98552849154574   -1.47721366162584   -0.03164156552442
