    23
        -45.37611114  Gyration_radius:  2.37904722491 Dipole_moment: 2.496
 S          -1.32240544894571   -1.05707558753827   -1.06624629358522
O          -1.15941264186443   -1.43596286063550    0.32902026726918
O          -1.94542318801228    0.23438638802723   -1.24428906178791
O          -0.06670516331902   -1.17772907452898   -1.80312495254273
O          -2.31426982993050   -2.12164549163224   -1.69491730876103
H          -2.55434861922658   -1.67739634985448   -2.50070376743904
O           1.88008229736768    2.15104877230820   -0.59537346287727
H           1.89797641076549    2.54361158627747   -1.46947524314409
O          -1.24111532109411    0.47418677219488    2.16897074440804
H          -2.12305780041617    0.61702350784353    2.51503129127057
H          -1.32666994821151   -0.22598835568409    1.48434844652508
O           1.02034266411383   -1.32911269472337    1.89592287210885
H           0.23814504429632   -1.64875957764814    1.40563824112504
H           1.77976722752707   -0.78306862702581    0.56295733702908
H           0.67748404699745   -0.61349035046838    2.44367755406137
O          -0.63250063459802    2.14406532262956    0.07826829545911
H          -0.76492238226214    1.76471987333456    0.96401182439473
H           0.93251185866882    2.23273969436082   -0.28756413005034
H          -1.14179836665487    1.55381939663796   -0.51397578214301
N           2.01649611165371   -0.48803544799944   -0.42240064585198
H           1.19851180485218   -0.80397405661787   -1.03433928211528
H           2.88015982355543   -0.92047814470520   -0.73111245042944
H           2.07115205474947    0.56711531543617   -0.48432448290023
