    23
        -45.37611105  Gyration_radius:  2.37891581684 Dipole_moment: 2.487
 S           1.46565924842788    0.74764371697245   -1.13759452814834
O           1.75206900806270   -0.49856818416557   -0.44343123732859
O           0.48115355572175    0.61078169030582   -2.18634181683502
O           1.13775735223436    1.81875354175117   -0.19994698246777
O           2.81751952238794    1.17213197620536   -1.84805474357924
H           2.49317579538903    1.82295437278258   -2.46099276204035
O          -2.67276325922626    0.88696040692768    0.76510463167624
H          -3.03951486092169    1.68694268088537    0.38565096741270
O          -0.02012198736726   -2.46567842636983   -0.61798609355736
H           0.15593813134966   -3.05840973156036   -1.34985933918187
H           0.67034068422278   -1.76732590574938   -0.66006471013549
O           0.86549350436246   -1.38847940619072    1.93117651946049
H           0.09717369633749    0.04404735367268    2.02169461887330
H           0.31330935935090   -2.07839082690860    1.54544158276939
H           1.44641420545459   -1.11059940979085    1.19652786766589
O          -1.78182407812826   -0.46580043457112   -1.27039211422040
H          -1.38721506635208   -1.31059269078486   -0.99354378706869
H          -2.41589861880911    0.31728901474868   -0.01517057586688
H          -1.04440285894736    0.01328125745755   -1.70074631092626
N          -0.25486271687259    1.02187308482099    1.83701772745277
H          -0.15403294726336    1.60352265525226    2.66148484800154
H          -1.26032239057741    0.99195238121842    1.50793673610043
H           0.33495473119290    1.40571087301360    1.03208950192329
