    23
        -45.37611093  Gyration_radius:  2.37887134008 Dipole_moment: 2.490
 S          -1.95066282848219   -0.40311815007854   -0.18391262818076
O          -1.04470421899043   -1.54092222883262   -0.22360909633867
O          -2.02528613559001    0.23008684561437    1.11272218225272
O          -1.66143669347104    0.54799633216245   -1.25432863909600
O          -3.39521205892973   -0.98470593458578   -0.47942256262170
H          -3.93599471984246   -0.25718521062106   -0.19177406753346
O           1.59217027407367    2.43713234909756    0.21166058973877
H           1.15852614924333    3.28980114695486    0.26965028026985
O           0.79922068163460   -1.73712958153818    1.67425817591947
H           0.04063372630564   -1.70388349049265    1.05003284218339
H           0.50046459549377   -2.24582443963581    2.42919434534909
O           0.38988131732014    0.95830071067902    1.98239094619383
H           0.76181740036148    0.06000758555624    2.01029713908799
H           1.20396620823163    1.89153663344790    0.95383023001315
H          -0.54732609369801    0.82167527612748    1.73455173295218
O           1.47047144468580   -1.70790372774158   -1.15273306508829
H           1.26868864382252   -0.14746416589005   -1.57106080225644
H           1.86182946908466   -1.80627390948672   -0.27704686132761
H           0.51753124593351   -1.86525645897851   -1.00611780363364
N           0.86957747717974    0.81292820809984   -1.75134141072389
H          -0.18661900407172    0.73069708633862   -1.60667194043963
H           1.07713761864616    1.11871298183768   -2.69560286411803
H           1.23532547102694    1.50079215195010   -1.03496673260755
