    23
        -45.36629896  Gyration_radius:  2.36425361678 Dipole_moment: 2.442
 S          -0.85001887265764    0.92979970838505   -1.32622621115072
O          -1.79229208798757    1.92971033871824   -0.89022052585335
O           0.52233177715050    1.24281577376647   -0.93449004903490
O          -1.19894608350871   -0.43741602251248   -0.98323738218420
O          -0.86736552644423    0.97338868859699   -2.91846044965033
H          -1.00425088522612    1.90131720866764   -3.07637377070810
O           1.68472760572650   -0.34525875808492    2.10263924149416
H           1.79263772743337    0.55924088171391    2.40454423977236
O          -1.44094980802705    2.15985254948967    1.72185488769493
H          -2.27529084748577    2.49268973237085    2.05822742421437
H          -1.52542243166648    2.16956697661931    0.74361944495544
O           2.18592814957419   -0.52845135756683   -0.37329707976532
H           1.56367068080236    0.24155855659240   -0.67646269956181
H           2.11446899825928   -0.48225262748224    0.65401189038488
H           1.62257295461248   -1.42806975427098   -0.65785010190034
O          -0.88002979444274   -0.47006897768217    1.69264712356485
H          -1.12224039645545    0.45759306970194    1.89151063724333
H          -1.06847338938066   -0.56748868484023    0.74199023600025
H           0.69509041149624   -0.48233103882543    2.02441852239630
N           0.67483734234284   -2.43774158501786   -0.99524012685593
H          -0.15219825533380   -1.83530927957004   -1.10434502111192
H           0.49513279887518   -3.09324683295318   -0.24541933886995
H           0.82607994233318   -2.94989856585750   -1.85384089110123
