    23
        -45.37611120  Gyration_radius:  2.37901133747 Dipole_moment: 2.491
 S          -1.53164276543741   -0.99231978121920   -0.81962090353395
O          -0.59091112845580   -2.08901166095399   -0.81447488923850
O          -1.75905742490302   -0.41607157411689    0.49685155674270
O          -1.18713069864647    0.03431031868321   -1.80024372872920
O          -2.92244358884735   -1.59950187784056   -1.27699816115460
H          -2.63982543856707   -2.15118913722592   -1.99809518875713
O           2.68530821449081    0.73142791840966   -0.87431584942918
H           3.01686937117242    0.41760163400412   -1.71695417290368
O           0.04364259056952   -0.86000443868354    2.39260000512129
H          -0.66221032982864   -0.80319894977220    1.71083175270224
H          -0.15436416950720   -1.63745678125659    2.91636366485554
O          -0.74753251051325    1.81847083562785    1.59336634101256
H          -1.36673407141773    1.14087760548788    1.25900201542408
H          -0.19940296622379    1.34252058977831    2.22797764033924
H          -0.00542173833946    2.01796629072574    0.15764028317590
O           1.73219275925600   -1.38759948546227    0.29494544885549
H           0.96626350956750   -1.73473912114564   -0.20642871506939
H           2.40570769011092   -0.08955964390546   -0.37707774087478
H           1.36777317096722   -1.17922634895660    1.17231276963308
N           0.31711593874486    1.91619155985118   -0.84216338554800
H          -0.31788637951331    1.18074882081763   -1.28852195738843
H           1.30660927056573    1.54153164495017   -0.87010056961603
H           0.24308069473448    2.79823158218504   -1.33689621565572
