    23
        -45.37611111  Gyration_radius:  2.37883563832 Dipole_moment: 2.490
 S           0.12822850726775    0.27928386573571    1.97643661034878
O           0.94927653365917    1.14306046445799    1.14169550648471
O          -1.28838740131994    0.53609026511134    1.85399321662262
O           0.45995479672764   -1.12930749949139    1.77668982166450
O           0.51594504713006    0.62292193683064    3.47442734814664
H          -0.21150361800362    0.22115852775496    3.93675376984073
O          -1.39875684603187   -1.88907335663804   -1.72755995030073
H          -2.00507798271326   -2.52660166779409   -1.34749016486875
O          -0.20195991923245    2.36408086376218   -0.91369591953603
H          -0.54017409336607    3.23123203860962   -0.68644906416594
H           0.17512230856646    1.99266253283802   -0.08539591946208
O          -2.09437809262428    0.39041583768947   -0.68538277542029
H          -1.71865352100177   -0.99699067465195   -1.40927552666885
H          -1.93897754547261    0.38350144997976    0.28121432328401
H          -1.53679142759786    1.11783557472653   -1.01090579107395
O           2.11952562442269    0.64416030333723   -1.22441661314999
H           1.50492449952785   -0.85359650399968   -1.05195720716482
H           1.53218866936676    1.22852656615346   -1.71757928236390
H           1.96966152883020    0.88936066087247   -0.29071828079959
N           1.02879979220692   -1.72040859922935   -0.68304786573496
H           0.82461833384739   -1.53385676862513    0.34973482616373
H           1.62669706525070   -2.53276914265736   -0.78702028754784
H           0.09971774058275   -1.86168667481219   -1.17005078428361
