    23
        -45.37611088  Gyration_radius:  2.37887366538 Dipole_moment: 2.494
 S           1.13692736708877   -1.57883528459611    0.46514711231106
O           0.07074238173045   -2.31566596239476   -0.17364805470191
O           1.74213746904023   -0.57143099168345   -0.39259492042447
O           0.73355336684680   -1.01401049347773    1.75057748480753
O           2.28084801841249   -2.63073647657759    0.77720468444224
H           1.76267699018257   -3.35444811880586    1.11213579167349
O          -2.66993498413877    0.91213681824220    0.74844313832184
H          -3.22780971179786    0.36229176790689    1.30061018378077
O           0.36549294788855    0.26549269046654   -2.50080933611775
H           0.55232066382720   -0.24367466479166   -3.29064631135147
H           0.90051733329894   -0.13909141141745   -1.78227725336131
O          -1.81072336782976   -0.67864653065382   -1.12219060857010
H          -2.41338239175382    0.33525306985170   -0.02651429777698
H          -1.23158238903565   -0.21262538090580   -1.74946932480815
H          -1.23937777027802   -1.37711474385051   -0.74249081079256
O           1.35657741527566    2.08651395407870   -0.46529342769204
H           0.89915178974314    2.06710701872891   -1.31386290971581
H           0.34956523077705    1.83159387933326    0.78851963252999
H           1.77427725301981    1.20583782783667   -0.40035831853561
N          -0.20201280835882    1.39799781837365    1.57709327650331
H           0.19355434120483    0.41415109537864    1.71417851632720
H          -1.21806771128253    1.29548652387910    1.29914665665156
H          -0.10545145386600    1.94241761510552    2.42709908649333
