    23
        -45.37611095  Gyration_radius:  2.37885514966 Dipole_moment: 2.493
 S           0.94612303373835   -0.59615554385415    1.65853206504935
O           1.28801671694341    0.72469697182360    1.15319472004547
O          -0.39710679303794   -0.68289542892944    2.18390554263412
O           1.22826558821803   -1.63557249852534    0.67163504897418
O           1.92058397831496   -0.86167321375533    2.88019729313100
H           1.48098247781396   -1.59595938999625    3.29489767078230
O          -1.90584261562454   -1.22367741780958   -1.84058806835373
H          -2.25966780841602   -2.09491710487230   -1.65569852276535
O          -0.69237111761364    2.38369672524765    0.54768981574067
H          -0.94602409369977    2.94140946615230    1.28430693248256
H           0.02127763357562    1.79674127998899    0.88292910070693
O           1.35744379976145    1.63763612328137   -1.37240042185697
H           0.58708730997669    2.20690665678817   -1.26225743443239
H           1.60917502571279    1.39901524091375   -0.45913317968469
H           0.95158046511141    0.11538990592150   -1.78344229952997
O          -2.20138342058424    0.09839207951635    0.38020744414476
H          -2.10285816842758   -0.67946726785460   -1.02552687562776
H          -1.64807028604454   -0.29230298834764    1.08709783656635
H          -1.87455491503481    1.01090976738377    0.29931062056139
N           0.72325181328346   -0.91501201390169   -1.76743245218511
H           0.96980747984831   -1.26156631200782   -0.78646405250504
H           1.26046774287689   -1.41476406014642   -2.46733330083879
H          -0.31618383665534   -1.06083095672719   -1.90362748306296
