    23
        -45.37611119  Gyration_radius:  2.37898988416 Dipole_moment: 2.491
 S          -1.72123493161291   -0.47062782632829   -0.90428224911534
O          -1.02601658717910    0.00269849859025   -2.07916983961987
O          -1.03090364121836   -1.55129274625468   -0.21691730272524
O          -2.06750184326043    0.61179478738727    0.01370065563780
O          -3.09228939304973   -1.08192307062842   -1.41306020064852
H          -3.35524867754256   -0.41592664358526   -2.03882917992786
O           1.50012570782544    2.46738136751897    0.41888408389796
H           1.20047819813812    3.28379948752186    0.01621636315544
O           1.55862259159423   -1.88827541872804   -0.68775092186360
H           0.58100025070911   -1.81565236419120   -0.61536331113593
H           1.72749982090237   -2.50049669412751   -1.40512733383386
O           1.47905162262454    0.72710952983058   -1.51430798110985
H           1.58902866572793    1.81702691460902   -0.33510290652448
H           1.77298405561938   -0.14919536629976   -1.21154779744169
H           0.56271749334307    0.57825845601358   -1.82530142504767
O           0.50291272617365   -1.48256317676665    1.98791389268197
H          -0.20168717957750   -1.70191303818054    1.34776199151393
H           1.31973349538628   -1.66815967252476    1.51036378177310
H           0.14589255270907    0.10596734007199    2.01591878308342
N          -0.25682141617026    1.06052458781967    1.81426632324100
H          -1.04699026030939    0.90965055284448    1.10981802364436
H           0.47084746029940    1.67303952576840    1.34998038086391
H          -0.61220072105533    1.48877493958656    2.66193618949409
