    23
        -45.37023079  Gyration_radius:  2.33359545069 Dipole_moment: 4.351
 S          -1.05515103399469   -0.97930180756065   -0.84071557448022
O          -0.85192045126691   -2.41651721746401   -0.91571013013686
O          -1.31177008779060   -0.56503713012426    0.53272031208137
O          -0.00464995682263   -0.20758147219400   -1.46903815694509
O          -2.37308461751362   -0.65387488102542   -1.67506976665887
H          -2.98055540790273   -1.35772520073704   -1.46436302880925
O           1.89534568753903    1.65859349497001    1.40991527847550
H           2.30797989769287    2.47234118201423    1.11698099135903
O          -1.08884783232188    2.23364210007668   -1.65675027653830
H          -0.61144924954306    1.38440138618605   -1.70919313036909
H          -1.97439783670547    2.05009169966289   -1.97522522223866
O           2.26127688066537   -0.48082487402420   -0.06827383820214
H           1.52148160596269   -1.47701639840684    0.69404347035816
H           1.59788503092351   -0.31738560756209   -0.76798929813538
H           2.24104858762922    0.33707628634567    0.49724287906208
O          -0.68940426614190    2.00789033862878    1.04302906016211
H           0.91500200763797    1.81470983823894    1.34374244040233
H          -0.81366137180337    2.36313913898013    0.14415989992823
H          -1.00904298987436    1.08995040992699    0.98126905042330
N           0.72645073033975   -2.12275167618208    1.13514585980349
H           1.06207361136077   -2.78853792312503    1.82357368712556
H           0.22912219243277   -2.56411746924815    0.31873560931106
H           0.00626888950515   -1.48116422706461    1.50176988417681
