    23
        -45.37023025  Gyration_radius:  2.33337900731 Dipole_moment: 4.345
 S          -1.03631748597251    0.87909575990653   -0.96568299450669
O          -1.31405495037226    0.63320211914407    0.44359930858446
O          -0.82114221328049    2.29584717140702   -1.20851645423117
O           0.01644553514628    0.03189632938796   -1.48316479607451
O          -2.34546372049934    0.46396269357855   -1.77347196376049
H          -2.95393703895872    1.18750825885214   -1.65040825510440
O           1.86343197494650   -1.49273515502147    1.62013251335591
H           2.27189109728451   -2.33767757880679    1.42645634627802
O          -1.08221028273741   -2.40852015370581   -1.39203289999292
H          -0.59806812285819   -1.57436951572834   -1.53905694695372
H          -1.96132950553445   -2.26003935379563   -1.74486229737053
O          -0.72016369154622   -1.86370803719001    1.26687224954768
H          -0.83524678524246   -2.32291242359233    0.41506590215975
H           0.88248412911153   -1.64801936240190    1.56185195578224
H          -1.03107148396176   -0.95749595205190    1.09155162211892
O           2.26554910574929    0.45557207517554   -0.09380231240689
H           1.52399917603225    1.54006490754013    0.53382789725925
H           2.23126197367349   -0.28944267960558    0.56432262129282
H           1.61006436296242    0.21454340195367   -0.77842458205181
N           0.72862643647373    2.23916046734647    0.88400219321551
H           1.06137460682838    2.98124518309379    1.49101121702435
H          -0.00031648818005    1.65112421324250    1.31674220234759
H           0.24419339092432    2.58169762127808    0.01398746347134
