    23
        -45.37023129  Gyration_radius:  2.33342089008 Dipole_moment: 4.358
 S          -1.30638402550965   -0.72398391225571   -0.73967539189210
O          -2.13609261347667    0.00311699396371   -1.68582745296003
O           0.05096474633254   -0.87185149498494   -1.24912872467808
O          -1.34154246285150   -0.18450510923746    0.60264233185882
O          -1.91824776577608   -2.19053137357191   -0.62114308161140
H          -2.19011031950524   -2.41807442691613   -1.50606731331886
O           2.20992838634384    1.31983222257617    1.30519426645397
H           2.43412222841586    1.32434144433573    2.23685151357350
O          -0.24733051389169   -2.14650589647425    2.05969465005775
H          -0.67066620715749   -2.93235005931765    1.70966700777787
H          -0.71971672705331   -1.39413633516782    1.65648879821283
O           1.91769450498326   -1.21815433319630    0.66503072723260
H           2.17271859884304    0.36101985604696    1.04202216997586
H           1.34854679971569   -1.62779076244197    1.34190056192003
H           1.34674752754812   -1.16211634574777   -0.12197317057869
O          -0.16318261319146    2.21958435061969    0.63135133027080
H          -0.70550684241354    1.43163342383029    0.83499214611453
H           0.75283445040553    1.98412387781543    0.93913779211145
H          -0.11622664724785    2.07266366775131   -0.81658675447128
N          -0.15142838749896    1.68221498350602   -1.86071418952599
H           0.09019673107030    2.36514393893313   -2.57140120217557
H          -1.10902366172461    1.26158059373480   -1.97853418331443
H           0.45170481362398    0.84474469621034   -1.87392185099128
