    23
        -45.37890716  Gyration_radius:  2.2883617006 Dipole_moment: 2.637
 S          -0.31439611425055   -1.13424762467968   -1.17855479823898
O           0.34452422144403   -1.34605302579736    0.09814364695999
O          -1.75483713865446   -1.17619534490194   -1.11016219584874
O           0.17800532641869    0.08802231317511   -1.82023624807604
O           0.11910825131270   -2.33405965957733   -2.11914590855102
H          -0.69840523142440   -2.52851460815335   -2.56555203362630
O          -0.95080129923008   -1.06882925287404    2.44442368514799
H          -0.52257245453681   -1.36813913956999    1.62043587539296
O           2.72629513984845    0.65749320800963   -1.19141806375347
H           1.83090055589696    0.44824966334205   -1.52636342335898
H           3.29508770894987   -0.05041768785247   -1.49680940850867
O          -2.49333733204461    0.46097927236987    0.86193721680938
H          -1.33479045774972    1.39283298657293    0.47376502573885
H          -2.45518264649682   -0.16253483760039    0.10737306111917
H          -2.15295920802440   -0.06162161600498    1.61731445989185
O           1.62981232475819    0.68684944164286    1.28207814055303
H          -0.25308935704180   -0.68185538451201    2.97796735024334
H           1.25671907087110   -0.17487181780260    1.00783786515883
H           2.30220412401561    0.85675635631941    0.59692803480841
N          -0.42167158442176    1.81719573439381    0.08160273208412
H          -0.48792288306895    2.81951564065381   -0.05757840258902
H          -0.23540187169422    1.30917315366842   -0.81689511533482
H           0.39271085512260    1.55027221915528    0.71290852393846
