    23
        -45.36531210  Gyration_radius:  2.30660232428 Dipole_moment: 3.301
 S           0.00184498804902   -0.95362046476585   -0.18215194822396
O           1.45310121237736   -0.96553924541489   -0.07149881348285
O          -0.60282544873119   -0.13709284667147    0.86803691561744
O          -0.43479199536550   -0.49364377883636   -1.50538885252389
O          -0.53005220434701   -2.40207241214270   -0.03229137605313
H          -0.19769640975474   -2.65285037066701    0.87398123731419
O          -1.06819825101916    2.40501927268590    0.23349646963632
H          -0.77636435704907    1.59412612868955    0.70656714620672
O           2.51946277590044    1.24583582169987   -0.89394247815552
H           2.18504621580437    0.39343379342699   -0.50235560635190
H           3.21191085454059    0.99916370367716   -1.51058892366377
O          -2.90318818734447    0.52664535951149   -0.46542168474664
H          -1.98141900257103    2.18043087225032   -0.02637861423661
H          -2.71670721690565    0.13379036869677   -1.32219303785454
H          -2.26553466932561    0.11170245991132    0.13792632188102
O           0.24549677021516    1.87696042101201   -1.82092555192094
H           1.22015293336328    1.78374568502151   -1.50777782344462
H          -0.07835746310096    0.87960363154633   -1.83459895182228
H          -0.29816186900157    2.26241012353989   -0.98743406370436
N           0.60981308841308   -2.35013597843501    2.29607516407286
H           1.43803928124494   -1.98932829515426    1.83418797781705
H           0.88826460300120   -2.90149360295694    3.09817262997430
H           0.08016436122155   -1.54709063650305    2.61450386354650
