    23
        -45.36531210  Gyration_radius:  2.30626722002 Dipole_moment: 3.299
 S          -0.94576327309847    0.08365236786510   -0.20343809560686
O          -0.84427804908673    1.53034079339143   -0.08013050922276
O           0.19383117757816   -0.46714434588781   -0.93352343172556
O          -1.07609820017631   -0.56237461858684    1.10767470191711
O          -2.23613305368376   -0.26926924889820   -0.98719137306275
H          -2.08733226658414    0.19828231696680   -1.85533154593473
O           2.24081428599836   -1.28756568292317    0.55713285227963
H           1.70528192441658   -0.85040324063532   -0.14167488539940
O           0.90978741131294    2.23740135710988    1.68832282955146
H           0.47601233480858    2.87335866859653    2.26103898626841
H           0.26717614123934    2.04936162894983    0.95115462011773
O           1.00072692169506   -0.18790736021796    2.42215336003203
H           0.06633106725711   -0.40086208917009    1.99597631198568
H           1.65972820136483   -0.66366293593258    1.73074609102933
H           1.09017193006052    0.82208446973513    2.25308052351382
O           0.14910293511749   -2.97686969433523    0.16594363532846
H           1.88292226175837   -2.19528760001073    0.55987184805454
H          -0.54470414680671   -2.85882501369841    0.82005640831077
H           0.04382728791359   -2.22577054308878   -0.44035363809802
N          -1.20095165095393    1.14122982315773   -2.90111804303603
H          -1.36828443871221    1.57300402936703   -3.80144510612086
H          -0.36318432339019    0.57374117187666   -2.95686747421308
H          -1.01898446807768    1.86348574641717   -2.21207805600489
