    23
        -45.36531207  Gyration_radius:  2.3063144436 Dipole_moment: 3.293
 S          -0.48771595822642   -0.76413623063891    0.34855449777500
O          -0.75107754733092   -1.21528911326249   -1.00988392545605
O           0.89023914914874   -0.30080704954559    0.49557445081122
O          -1.42835032752150    0.28372440540868    0.76140018048545
O          -0.70523462311717   -1.94709947113425    1.32692699021986
H          -0.04783141905122   -2.61811275667279    0.99273491948853
O           1.28270084493479    2.30745272477306    0.13593466918574
H           1.36944240579851    1.32977928683642    0.08286437811361
O          -1.01265904835879    0.76166463574718   -2.66127244075118
H          -0.86308800626622   -0.05071239870768   -2.10499679962051
H          -1.82508513284956    0.60348778123391   -3.14661002776784
O          -1.08602229987126    2.30223643006422   -0.64887382405096
H          -1.35356776188246    1.52114573410732   -0.00174701289396
H          -0.06558251325844    2.45742841982941   -0.37950944692463
H          -1.07186443331924    1.83080056291569   -1.56226946770852
O           0.47044570668121    1.43175388330800    2.57689820456759
H           0.72065186545487    0.65629247214363    2.04884577453274
H           1.19604829670947    2.45962516709519    1.09573983255102
H          -0.48611031698534    1.37765403348014    2.64870738029063
N           1.14845276697962   -3.13688266053864   -0.04186663253682
H           1.63058918504473   -4.01148549592425   -0.20807076175010
H           1.83268495933749   -2.40954985738479    0.13073546796861
H           0.64293420767494   -2.86897049320511   -0.87981638681331
