    23
        -45.36531193  Gyration_radius:  2.30623004679 Dipole_moment: 3.291
 S           0.93686505846482   -0.04314038195161   -0.25487208977632
O           0.98969263905873    1.41032368812032   -0.30640009575171
O           0.19220954935974   -0.50560293984322    0.91427401373561
O           0.36496321508565   -0.60665473755237   -1.48318021460062
O           2.38063115330825   -0.59997503966669   -0.15770257387094
H           2.70935019400992   -0.18093073706652    0.68523714002861
O          -2.40138494779494   -0.96822360971883    0.53080645830641
H          -1.55118338739771   -0.64885373467796    0.90664611785041
O          -1.26014216340178    2.44313948708409   -1.06489398997424
H          -0.38542234307377    2.12904256955106   -0.70716011579786
H          -1.05118848164760    3.05973886927409   -1.76971321504011
O          -2.00885107132889    0.10254978460007   -1.68881892881663
H          -1.02203304723630   -0.24949740255137   -1.74275230121381
H          -2.33883304283446   -0.33746527625803   -0.77493286159308
H          -1.87123479021272    1.10200925224614   -1.49147383995604
O          -0.61783601105437   -2.91853364750660   -0.10147094054145
H          -0.14502152562121   -2.22974126936134    0.39325204954469
H          -2.21438661134858   -1.90979374219572    0.35654845831448
H          -0.28960726402928   -2.83936418160906   -1.00096634846287
N           2.53343089903242    0.78243780645232    2.03081943275249
H           2.16750105542901    1.57348258466980    1.51149289384701
H           3.14497060604777    1.11857918071999    2.76433689074132
H           1.73751030791576    0.31647347918446    2.45092404006822
