    23
        -45.36531168  Gyration_radius:  2.30613066649 Dipole_moment: 3.293
 S          -0.21518671970305   -0.81133735606630    0.49135657762370
O           0.00651523282597   -0.52520786234488   -0.92446358051562
O           1.01436182834381   -0.67157931519892    1.25720424804992
O          -1.28384336216589    0.04082060400275    1.02552267197633
O          -0.72622672058277   -2.26987825978276    0.61386553706713
H           0.03838402372216   -2.79036706651602    0.24127315013452
O          -0.44179120334572    1.98647057501547   -1.68398796261841
H          -0.02518587279744    1.10542247841485   -1.55539791330751
O           1.65260656005258    1.80816397523534    1.64053955687603
H           1.82475511889317    1.90161425024714    2.57980760414526
H           1.51146756624934    0.83494927301870    1.48313934824769
O          -2.54340803333954    0.27009397635937   -1.53956741195711
H          -1.35358162244550    1.75312028538414   -1.94109067398184
H          -1.72749756402630   -0.24875826993336   -1.45128215383435
H          -2.93996395500621    0.24856206453938   -0.66466490367202
O          -0.64383438603321    2.42872130680710    0.76359743583497
H          -0.55114588419236    2.40560168717978   -0.29882643389500
H          -1.02858640517113    1.47222240559848    0.95786480877489
H           0.31214641689211    2.35680971839337    1.13473440884009
N           1.55074866797634   -2.92457693330241   -0.43925145657909
H           2.17113129651774   -3.68800444521774   -0.67876207067273
H           2.00084547856911   -2.33111432205353    0.24962293964606
H           1.39728952991838   -2.35174875897254   -1.26123372637278
