    23
        -45.36457401  Gyration_radius:  2.45203281311 Dipole_moment: 3.530
 S          -0.07885249848036    1.01426950968284   -0.52010629896771
O          -0.14834022209422    0.48480600223443    0.90828110737290
O           1.27376857304422    1.41788398658739   -0.82110869850796
O          -0.63271623914223    0.05265930941182   -1.43626835396517
O          -0.99062471568552    2.24861069956986   -0.47466467906973
H          -0.47171263221342    2.91649714385225    0.10414187668247
O          -0.95510631731309   -3.26720308659399    0.78509395675533
H          -1.40053899963372   -3.39554453975805    1.62417581587484
O           1.93882658481241   -1.12936395865457   -1.43687833125675
H           1.13369336921688   -1.25782210231054   -1.94820450973512
H           1.99466528219723   -0.16729789598589   -1.30999671064710
O          -2.51996089596196   -1.65789367364761   -0.67208856485272
H          -1.87932381236736   -0.96252029903043   -0.92683968774319
H          -2.88832267964428   -1.98883357460102   -1.49350507096742
H          -1.56171288622372   -2.71913027737132    0.23673874578590
O           1.10663010492565   -1.63541042082501    1.03844606128874
H           1.56677382906378   -1.61364538977138    0.16542700042610
H           0.41275024135254   -0.44483639305250    1.03192499307121
H           0.40242989166738   -2.33190778917709    0.96455358839600
N           0.69384377037845    3.56827819083013    0.93661129923323
H           0.67546677905772    3.28937632071921    1.90855666981304
H           0.92054273030314    4.55228317003223    0.87892735840045
H           1.40782074273940    3.02674506786427    0.45678244261364
