    23
        -45.36457399  Gyration_radius:  2.45197198079 Dipole_moment: 3.528
 S           0.83050609243690    0.78356786176976   -0.04351114207362
O           1.28595638441043    0.81210684264609   -1.41273389907007
O          -0.69407732999892    0.77328177880464   -0.01221904453453
O           1.35295970143661   -0.30670220879002    0.73699114170053
O           1.18035112615011    2.10922101600172    0.64740114795698
H           0.87541155066645    2.82321242827250   -0.02143577512175
O          -1.86860495910401   -2.59544425754637    1.40483151397088
H          -2.71316198386251   -2.35762960383115    1.79095871340282
O           1.02126842491595   -1.87262376763102   -1.59653344013469
H           1.22888111936635   -0.94984871254967   -1.82049785453689
H           1.43714154805482   -2.01089543401133   -0.73960595973172
O           0.00513221198440   -1.29523151559927    2.80531475889918
H          -1.18348364169630   -2.15620728935962    1.95863068706488
H           0.65603590950906   -1.80365089976053    3.29293713134247
H           0.49714522251753   -0.85196328796738    2.08401202836106
O          -1.50081271947015   -1.37824133006669   -0.91052482071266
H          -1.11018417963382   -0.15027201731731   -0.42264152055764
H          -0.65994569998411   -1.72870930799214   -1.29070534560988
H          -1.68541231958972   -1.91890875980880   -0.09804381582557
N           0.34344945728468    3.48743345995745   -1.34545575627835
H          -0.66577775707335    3.54984983875996   -1.36618042187651
H           0.63170535459027    2.69803665141976   -1.91733276288579
H           0.73551647706723    4.33961851462822   -1.72365556375375
