    23
        -45.36457399  Gyration_radius:  2.45213656862 Dipole_moment: 3.529
 S           0.62178000670277   -0.82424687266641   -0.48926169537683
O           1.52563286803522   -0.16014189590857   -1.39759316875720
O           0.60212520728054   -0.08455038447221    0.84412662086270
O          -0.71746075574113   -0.98474578760101   -0.99075770102081
O           1.18535591070636   -2.20132992526066   -0.11092658431997
H           2.16421418441087   -2.01032668768458    0.12488574187341
O          -2.87908233581750    1.45989835652641    1.33642884468003
H          -2.94297507900321    1.48909890585694    2.29245216396477
O          -0.40261989041377    1.60485509367556   -2.08822366155106
H          -1.06480361500415    0.91093674384557   -2.16783010658941
H           0.44479124814371    1.12954044406200   -2.06104436653954
O          -0.45517692042521    2.12108675443147    0.52075633686487
H          -0.48119411844054    2.15342076838892   -0.46547868940940
H          -1.39193518932020    1.98045676854590    0.81937976397892
H           0.16460209198560    0.91304293470382    0.75653771226028
O          -2.80216732380199   -1.12670725272697    0.65413673110448
H          -2.90562102099715    0.50680180369232    1.09155169071698
H          -3.50855929835675   -1.48446484133505    0.11289617922324
H          -1.99996720121798   -1.14362886360168    0.09285155907201
N           3.52955572292446   -1.24575757082643    0.29244285002340
H           4.42177586327302   -1.66995863268273    0.07570159582094
H           3.59732020043064   -0.76858173220319    1.18155081905014
H           3.29440944463586   -0.56469814676301   -0.42458266592917
