    23
        -45.36457400  Gyration_radius:  2.4518375334 Dipole_moment: 3.534
 S          -0.20130019150958   -0.18586181791716   -1.10969631505757
O           0.31222257360117    0.96692061523604   -1.81004517267686
O           0.81306272592411   -0.64419422209293   -0.06725188705344
O          -1.48956673596539    0.01150391365743   -0.49956881639698
O          -0.27628278241205   -1.38361563447851   -2.06707558824800
H           0.63602967806619   -1.38201514707498   -2.53447200731898
O          -0.68133351889108   -0.08484959784950    3.42510545299802
H          -0.23312366970929   -0.76019420922722    3.93693136759926
O          -0.55771776986790    2.60033208916087    0.16129025251916
H          -0.16808964916491    2.29000095144889   -0.67336644653147
H          -1.40782517584996    2.15169475972400    0.21073122603186
O           0.96545469335672    1.06276361546590    1.70770817704933
H           0.37661155402213    0.71037832903257    2.42570936219324
H           0.94058541260463    0.08697413509337    0.73484992870019
H           0.46732486657402    1.79867677722103    1.27790833920900
O          -2.22326163175728   -1.36705301863451    1.65276148646844
H          -1.28549971036720   -0.56413268118142    2.81333251000052
H          -3.17451485601020   -1.25230075511510    1.69660427864039
H          -1.93976136706943   -0.93745181782901    0.81977611927146
N           2.06849765526034   -0.92110819856033   -2.99301621665066
H           2.79364032606943   -1.23411371913817   -2.36135314326712
H           1.87093600658765    0.05740243812312   -2.80129246635086
H           2.39391153650532   -1.01975681506914   -3.94557045112572
