    23
        -45.36457399  Gyration_radius:  2.4518880841 Dipole_moment: 3.531
 S           0.45165103664322   -0.54985668994656   -0.89426492496941
O          -0.34649849757108    0.72757696642882   -0.65621142604354
O           1.86284778143948   -0.24754203079201   -0.88247313907177
O           0.05158425722636   -1.56950679075579    0.03904692122364
O           0.02182624641232   -0.96606355308240   -2.30816575786606
H           0.43805474977992   -0.25060959865854   -2.91238231347260
O          -2.13542161108129    0.44060003157058    2.72838598831335
H          -2.89792234865497    1.00538257514154    2.59216298709766
O           1.90950582839098   -0.38876029345239    1.81744807055628
H           2.20018996244065   -0.29566146797199    0.89464904611229
H           1.38177286880193   -1.19361155647618    1.82282387094908
O          -2.40660677150318   -1.62792375816913    1.05173138294902
H          -2.27022358041724   -0.34260021834022    2.14753436556370
H          -1.53898481967628   -1.60952757225340    0.59817691476443
H          -2.49391530236949   -2.51120022136602    1.41521513968037
O           0.03745933349484    1.49427946374150    1.65727802398144
H           0.79388425034382    0.91065885369943    1.90551870488310
H          -0.19562106128099    1.12823627104867    0.34914104354154
H          -0.75213026816400    1.15239083121927    2.15334621730390
N           1.30478231474932    0.97682215298626   -3.38067342841847
H           0.81101644213796    1.85445781684949   -3.28672869172495
H           1.82185160714092    0.97954611545801   -4.24994957489971
H           1.95089757169709    0.88291268308878   -2.60160944045308
