    23
        -45.36457399  Gyration_radius:  2.45203704682 Dipole_moment: 3.528
 S          -0.85564992434363    0.65962353318657   -0.37165317457059
O          -1.18069033634630    0.18746574299139   -1.69618779287214
O          -0.69163872322913   -0.52947865642351    0.56888600864647
O           0.30391583035290    1.50945105533840   -0.30866157833212
O          -2.05851382991294    1.40573692444603    0.22280303917455
H          -2.85061851927164    0.78242586473149    0.03760704959312
O           2.98094158707690   -0.71893186099253    1.67337455254801
H           2.90308880632663   -1.14424261940117    2.52893754063675
O           1.43620111867422   -0.23070962191847   -2.23225313800749
H           0.47205125138414   -0.16878283743374   -2.33896146897112
H           1.69049661988166    0.61565538727382   -1.85107183396828
O           1.32501099714006   -1.79292096428521   -0.08221192804929
H           1.51513786716735   -1.37085847739285   -0.95408342643069
H           2.02233608061525   -1.46419526316203    0.54401136044242
H           0.17625823766529   -1.14219145960829    0.31237907278245
O           1.78609744731564    1.66554038675192    1.89362448564164
H           1.17065339968320    1.63198231912923    1.13272293012280
H           2.58711464409776    0.17710703080992    1.77874747752543
H           2.31004022222164    2.45973270473187    1.77243538280789
N          -3.69301672385336   -0.42136046373455   -0.52640869231450
H          -3.05400443065643   -0.57087421486187   -1.30264712355416
H          -4.63385039091737   -0.30923343955269   -0.88024795658058
H          -3.66136125107298   -1.23094107061429    0.07885922372536
