    23
        -45.36586763  Gyration_radius:  2.44575304654 Dipole_moment: 1.613
 S           0.08911206105939    1.21491217724689    0.71664209476825
O           0.29058386426254    1.35602310296035   -0.79140588224152
O          -1.20272054161552    0.61737669394406    0.96890777902410
O           1.18854919524554    0.51354626066902    1.31805706389166
O           0.08811552680145    2.67103341483036    1.19686494232906
H          -0.75901854359438    3.05027675280622    0.76570823517666
O           2.25273234045054   -2.27347494225573   -1.33885378838806
H           2.14200139675356   -3.19039125173597   -1.59712921828701
O          -1.06738860535579   -1.96294439247021    0.19727865553148
H          -0.28691302884448   -2.26360423078426    0.68337261207085
H          -1.30168015695949   -1.10129513607559    0.58665532710237
O           1.53558608398281   -2.08815209578392    1.28803991083867
H           2.10354754338059   -2.23608238122025   -0.37374358412165
H           2.08657513789853   -2.32590114921872    2.03585278808281
H           1.43622946705353   -1.10864216389686    1.32891907264691
O           0.06120715401656   -0.84600443174678   -1.90830989308693
H          -0.48866121671589   -1.34437860336079   -1.24878126306440
H           0.20223848715379    0.42494229792715   -1.32101469717267
H           0.94811578389789   -1.27287469414901   -1.86719668667600
N          -2.11902249818608    3.11199964188767   -0.02807357858461
H          -2.88455429140369    3.72697797330611    0.21454895478595
H          -2.36812456607209    2.15297316119094    0.19653076508628
H          -1.94651058320881    3.17368399591523   -1.02286961971507
