    23
        -45.36528544  Gyration_radius:  2.38306317466 Dipole_moment: 3.487
 S           0.38037420119988   -0.31492646442495   -1.00969611665515
O           1.63512431562664   -0.63983159648433   -0.35804507161308
O          -0.75402921178193   -0.92522148127094   -0.27732582712610
O           0.17435943117916    1.11349471592433   -1.17087958373867
O           0.36417704035840   -0.94468871665133   -2.42862702366458
H           0.55476814337145   -1.90523276483308   -2.23772840049793
O          -0.03646163774251    1.19752333534336    2.75327429504050
H           0.29401042882617    0.47658888942396    3.29212503869277
O          -1.99900439143157    2.38630087351650   -0.54144884152736
H          -1.13680933979000    2.01894365608631   -0.86368191893483
H          -2.61640444605995    2.29873333021049   -1.26997951032463
O           1.84906839853437    1.61470457866006    0.99943932071686
H           1.93951793617487    0.73859726118851    0.56691548584082
H           1.50131221595921    2.17800549745942    0.30080293534588
H           0.70655210959051    1.43792696606569    2.12883017319440
O          -1.97481804120300    0.56469186824019    1.24050525246457
H          -2.12008683521609    1.36744623197158    0.62638707689212
H          -1.47354848324885   -0.15061478481091    0.58468969319492
H          -1.24801634039398    0.84515161882080    1.91676772167184
N           0.92920106111306   -3.21682793480043   -1.28996505326357
H           1.45447580294943   -4.05753516277731   -1.49359915495911
H           0.09240269661153   -3.46999700671562   -0.78035801296552
H           1.48383494536976   -2.61323293015408   -0.68840245778130
