    23
        -45.36586780  Gyration_radius:  2.44614254195 Dipole_moment: 1.623
 S          -0.41754788167515   -0.31815080630374   -1.31249724863982
O           0.49843379988044    0.79849509068573   -1.37087706564157
O           0.24708772684480   -1.47358762856647   -0.56510041283242
O          -1.69447348249978   -0.00143171674691   -0.73673699697457
O          -0.61987170332269   -0.89498296378323   -2.71849673511571
H           0.33987339512359   -1.01958158046154   -3.05164706960035
O          -1.23944567981296   -0.50418961374685    3.20244793280089
H          -1.04203160549746   -0.06026679705609    4.02928547056549
O           0.70185970438217    1.81216923765058    1.11970271168374
H           0.71960896016931    1.64516936455074    0.16015402576811
H          -0.22900829452943    1.95478075768502    1.34095804757837
O           0.96037231833345   -0.74838639760419    1.69665582497721
H           0.18002731252421   -0.86484750883402    2.28649089469870
H           0.57268867033354   -1.20831522563130    0.42391915527156
H           1.03740673007139    0.23361808423210    1.57281769188217
O          -2.07541754000189    1.40912216363399    1.44425096706412
H          -2.95539448319689    1.78808262968254    1.40679450410796
H          -1.64309541574008    0.16533053575877    2.61616580802976
H          -1.97460654647992    0.88282721862058    0.61734942314443
N           1.91305438476052   -0.95230549071667   -3.10081306870162
H           2.44343808434464   -0.82068351925760   -3.95198316662115
H           2.31759203430787   -1.71412759709476   -2.57238897280444
H           1.95944951167231   -0.10873822668895   -2.53645174064750
