    23
        -45.36629899  Gyration_radius:  2.36420540728 Dipole_moment: 2.428
 S          -0.50640744329554   -1.32649465286846    1.15469109662540
O           0.46811184297599   -1.69663223714122    2.15027701262616
O          -0.98148602812480    0.04565775354816    1.31687309886423
O          -0.11602482598770   -1.59174858818662   -0.21860987952903
O          -1.77295016079057   -2.25760739568919    1.41170218817955
H          -1.75438278425218   -2.33628092737668    2.35939977746701
O           0.67795624172560    2.52388816904511   -0.73376990103598
H           0.91778607397634    2.90330667433184    0.11444661044334
O           2.37778460267124    0.12855923395282    2.00495898931257
H           1.64124967677743   -0.50429035495111    2.15047952075284
H           3.16219122236538   -0.30118772398079    2.35139935472271
O          -1.62399804048097    1.47306353748266   -0.62452855387780
H          -1.58056594201427    0.73531453027797   -1.43752056842695
H          -1.45166802209209    0.89943282889582    0.22014751680278
H          -0.75122648332289    2.01502160244881   -0.70864146054732
O           1.85025115107245    0.20485648515660   -0.63109723883251
H           1.18884207241149   -0.50881556929598   -0.58709380969128
H           1.18870358111849    1.66380206175719   -0.79325220094026
H           2.21548892060114    0.24982433786771    0.27622056673231
N          -1.36026354448836   -0.35740375687817   -2.32628805193021
H          -0.92191494108449   -1.00614398600303   -1.65866122469287
H          -0.69305460192209   -0.15629546367282   -3.06018332458477
H          -2.17442255784188   -0.79982654867933   -2.73094950844667
