    23
        -45.36528534  Gyration_radius:  2.38329343559 Dipole_moment: 3.484
 S          -0.96480788841331   -0.55087640895432   -0.16831071176970
O          -0.23230045039661   -1.41546304648918   -1.07417634624615
O          -0.24585518996269   -0.42820464577103    1.12166735397190
O          -1.23757656833433    0.76135754756105   -0.72731390808824
O          -2.33417596231670   -1.20260594374007    0.16386753195229
H          -2.06631486119122   -2.10472649670840    0.49531794515989
O           2.65620746707797    1.27988475901471   -0.57230314069594
H           3.26045104948955    0.54100668078929   -0.48199153208138
O          -0.80604153423254    3.01720304948862    0.48318723589531
H          -1.05941299956650    2.23370069393635   -0.06825457307447
H          -1.55563091553076    3.19704546773576    1.05352396745439
O           1.10024341437696    1.60130050038250    1.40840339354906
H           0.42405339911256    2.30874843789044    1.11716832986601
H           0.52214062678306    0.67640521149202    1.34349930308299
H           1.78916945990201    1.52732088152128    0.64424228862580
O           0.96965908352744    0.51803567041686   -2.41114962775394
H           0.21647346305703    1.11721436485442   -2.40626933509076
H           2.05257030259589    1.05050923798861   -1.33566783537631
H           0.60597386608458   -0.31424031326206   -2.03993881807355
N          -1.01136217922279   -3.33682298818328    0.85189152466439
H          -0.52548707802828   -3.08255678849088    1.70234551974845
H          -0.42830153813756   -3.05255989000475    0.06891244976604
H          -1.12967497667514   -4.34167598147842    0.83134899451892
