    23
        -45.36586758  Gyration_radius:  2.44586270642 Dipole_moment: 1.610
 S           0.91486256476124   -0.76497965026913   -0.75904405362383
O           0.19422217361658    0.11735694614496   -1.64866597047552
O           1.55503658785516    0.06063417389578    0.35624958975062
O           0.11947090392800   -1.83072275452482   -0.21689857088428
O           2.12975337725417   -1.35304266890888   -1.48619879029836
H           2.58043425340416   -0.52274137218046   -1.87998027214239
O          -1.57446871052104   -0.32660764114789    3.07444370846614
H          -2.36056507433066    0.09443717898104    3.42720410189469
O          -1.97715761516808    1.00963662228181   -0.32189709318594
H          -1.30614085535718    0.76166644157771   -0.98308188552856
H          -2.37549158456407    0.17723274356913   -0.03160174759097
O          -2.30340875894112   -1.57916294178846    0.76152122983936
H          -1.86470837898294   -0.86369750619087    2.31134180664444
H          -1.39912011911283   -1.71646068069050    0.39505971052783
H          -2.74126470704519   -2.42998086833959    0.70123475408031
O          -0.16770013032151    1.37556623603806    1.56157046061069
H          -0.88587461009601    1.43110252968896    0.87830210764618
H          -0.53269413756047    0.78385802608941    2.25952041928247
H           0.84608025923305    0.64809174669997    0.91053236471573
N           2.82214935926215    0.97854647196924   -2.29195817925241
H           3.21650309214844    1.49843283386043   -1.51899330782636
H           1.83024091772001    1.19071644248859   -2.34976099614922
H           3.27984119280989    1.26011772075295   -3.14889938650830
