    23
        -45.36528544  Gyration_radius:  2.38316057783 Dipole_moment: 3.488
 S           0.99326926228954    0.33799647287084   -0.40310920375978
O          -0.29872846703645    1.04535485915523   -0.56491219638869
O           1.44529260999307    0.42099560517872    0.97291807097369
O           0.89211838007424   -1.02668446526780   -0.88911963018384
O           2.00567823909551    1.07798372402960   -1.31831323270229
H           2.05291219548621    1.98129261387114   -0.89719466677898
O          -2.01230215759909   -1.40378042965705    1.73239127302444
H          -2.12215237486198   -0.78698474352060    2.45821871160964
O          -1.15577734111933   -2.01369103397087   -2.14286483819370
H          -0.29900604094043   -1.75183957431894   -1.71909492548870
H          -1.08010331899428   -1.77589370887653   -3.06880113039177
O           0.53981968765832   -1.94458653541676    1.71868859428992
H          -1.05692335444999   -1.69712626632737    1.76197951184790
H           0.75566665830971   -2.39168587260727    0.89418732881735
H           0.94851825507587   -1.05851327183437    1.61535867085252
O          -2.30154053571613   -0.36969666608329   -0.56843454944783
H          -2.27146581148394   -0.80894248002648    0.36445640033131
H          -1.45128733408831    0.31615525326926   -0.57313857644495
H          -2.01243369696998   -1.08863231994527   -1.23339520706337
N           1.71707215246930    3.14132684059911    0.24280198438267
H           0.77625687214649    3.47138272459407    0.06984322309175
H           2.27332728139649    3.90998496742133    0.59475986663014
H           1.66178885925878    2.41558432686346    0.95277451098638
