    23
        -45.36528541  Gyration_radius:  2.38315997762 Dipole_moment: 3.486
 S          -0.33523564982613    0.11146525210605    1.06672107043391
O           1.06896643579445    0.07626516551172    0.59472818844673
O          -0.97243817223092    1.35086170377167    0.66345695310427
O          -1.05284192353549   -1.07009915860060    0.62190360771325
O          -0.26885703026856    0.05249580445236    2.61665007090288
H           0.19171469635765    0.90807305485283    2.84310863964676
O          -0.06209590504199    0.08826084281450   -3.00120155869926
H           0.22656449846241    0.98425747448361   -3.18331876789907
O           0.02575682025103   -3.10766442274933   -0.57188200319947
H          -0.49945796693895   -2.42034349409047   -0.08821254675292
H           0.39361282602398   -3.68509884683214    0.09956148069796
O          -2.16365573743750    0.37963927165917   -1.48314322474201
H          -1.81410812997718    0.89889168513741   -0.72749389330379
H          -0.92008755932462    0.17273179466558   -2.49476609263073
H          -2.38218605168275   -0.47212253856159   -1.09186733597517
O           1.47789198114600   -1.20826404886459   -1.45381490700016
H           0.98079674639745   -2.07101194393083   -1.22749970903895
H           0.89940310230625   -0.71494672057418   -2.15106679040939
H           1.36357687306933   -0.61968057294115   -0.54073170064750
N           0.88496148889108    2.38477241078631    2.53134969182589
H           0.23346906991393    2.51879712328584    1.76233669714127
H           1.79800453228443    2.21131141912611    2.13101494954070
H           0.92624506530648    3.23140874465292    3.08416718080293
