    23
        -45.36528546  Gyration_radius:  2.38309954609 Dipole_moment: 3.489
 S           0.50088736121068   -0.62781903529483   -0.78672582078197
O           1.45742462430329   -1.01646493792300    0.23246111054595
O          -0.88347853299905   -0.79939598064425   -0.28680168655729
O           0.70362123752667    0.72538835915524   -1.27309482817865
O           0.63862571385329   -1.57970274253625   -2.00537602633644
H           0.53323357885278   -2.47901698826579   -1.58620264074278
O          -0.33632429546710    1.83775605803324    2.35119247010487
H          -0.32568858339233    1.22711711764646    3.09034986364352
O          -1.16138298982123    2.51462719391468   -1.51968024051345
H          -1.60503054732578    2.36796569481023   -2.35711112372825
H          -0.37083930623727    1.91693450708279   -1.51699353288880
O          -1.99029929309745    1.23402666919354    0.52172930074671
H          -1.38328825706809    1.52863585467982    1.30196725205820
H          -1.78951073241995    1.86796509018488   -0.25311956657485
H          -1.55462012103741    0.29260398497037    0.17933429870972
O           1.93129372398316    1.42104652194024    1.13036918845766
H           0.56175547762932    1.76224961527613    1.91824583608986
H           1.88966136776331    0.46396949695747    0.91799866731957
H           1.89999712396033    1.84660924431245    0.26768402372264
N           0.34485275471149   -3.55543752066837   -0.33574812964910
H          -0.61977736543587   -3.50208388431999   -0.03466338515143
H           0.88803088561644   -2.94044426963320    0.26474027139797
H           0.67085620489772   -4.50653003886875   -0.22055529170059
