    23
        -45.38252915  Gyration_radius:  2.27577824709 Dipole_moment: 2.962
 S          -1.20151199415374    1.45704274147155    0.27927482262597
O          -0.24090053325574    2.26914090358837    1.01421187034518
O          -0.76554255746025    1.23964517811891   -1.09707052870175
O          -1.55061346833929    0.22819957825086    0.95699166707077
O          -2.53328458014399    2.31051054014608    0.19599509621606
H          -2.23197549560146    3.15415106767874   -0.12691465014567
O           0.48768509810965   -2.29536866055724   -0.91538735074312
H           0.54293964512363   -3.15063733881160   -1.34295537837663
O           1.66196885241248    0.14960032136417   -1.42440827057006
H           0.81689857958300    0.63988150060182   -1.48916981429262
H           1.40111023628931   -0.78818202318262   -1.38627150955516
O          -1.84672970467999   -1.16473950534878   -1.31304449898885
H          -2.14412110339403   -1.03174825574552   -0.40140292581166
H          -1.51753851721201   -0.27694624166256   -1.54970059647654
H          -0.42342964747053   -1.94014372343197   -1.11411112940128
O           0.42527664282692   -1.42394012125315    1.70492484174091
H           1.41674532101459   -0.19177330587126    1.52377526506882
H          -0.40362812352695   -0.91331689786867    1.60948553580223
H           0.50739633142281   -1.92270515534953    0.87250650657510
N           1.84044848389491    0.70213797289104    1.12659818142913
H           1.99181477704318    0.52260254213733    0.08645494467049
H           2.68563148312798    0.98727532629117    1.60776452407816
H           1.08136026438908    1.43931356656158    1.18245339743611
