    23
        -45.38252878  Gyration_radius:  2.27580033127 Dipole_moment: 2.955
 S          -0.86157536464395   -1.52435001498880   -0.76087699185223
O           0.37722505406776   -1.78261482592016   -0.03244394315580
O          -2.00445036557944   -1.48314954541704    0.14157410565036
O          -0.77213989329785   -0.36928911355619   -1.62619201193519
O          -1.08918552858222   -2.77222399867254   -1.70966921615289
H          -1.27504696520261   -3.47933296039679   -1.09960968874652
O           1.90719209825459    1.64381338613913    0.04881511122925
H           2.70496972105647    2.16876698241928   -0.02412531015758
O           0.96323558722371   -0.09820623566287    1.96981934471088
H           0.85485115157899   -0.85314487863978    1.35596756498017
H           1.43973207721982    0.57514200200097    1.45167256439720
O           1.90909075253331   -0.35689237657338   -1.64886446903191
H           1.61418836097656   -1.04841454216983   -1.02611967171193
H           1.09961601351044   -0.17800463304710   -2.14836794301485
H           1.98909253870748    0.91308429615914   -0.62594098080390
O          -0.76491979129748    2.06714538358690   -0.50505408449268
H          -1.34694297059813    1.37844902114921    0.80685561264692
H           0.19177750595618    2.13551474870092   -0.33566178710820
H          -0.85971559606610    1.28856140804346   -1.08966825519238
N          -1.51192135456696    0.64632092878134    1.56386737905668
H          -0.54971144179897    0.39327475812928    1.94733322881672
H          -1.85898322687631   -0.22178473022098    1.06512098336595
H          -2.15637836257487    0.95733496014628    2.28156844849952
