    23
        -45.38252910  Gyration_radius:  2.27582137024 Dipole_moment: 2.961
 S          -0.93066880683194   -1.50479181421921   -0.71711072048695
O          -0.07270176714460   -1.63303822228476   -1.88751555861243
O          -0.18267894543198   -1.74035992466210    0.51446076589933
O          -1.68091569614691   -0.26888567519399   -0.68888627399858
O          -1.99931176880380   -2.66949715530465   -0.81991714113392
H          -1.46518304715631   -3.44269102267755   -0.97354161521562
O           0.27357097621467    1.76761778621757    1.77335520014024
H           0.27989473544872    2.35495688116906    2.52989165076344
O           1.98682432913579   -0.21436965639682    0.90539645782661
H           1.30194494700818   -0.91341295624295    0.87434594807552
H           1.55180370365160    0.53822548809187    1.34499237538538
O          -1.60045897459653   -0.05739213217279    1.98187222130266
H          -2.10801703615746    0.10647916724305    1.17403944364604
H          -1.05575304613105   -0.82582728432025    1.72602849653506
H          -0.46207296792437    1.11238571999772    1.93232502036549
O          -0.34097216473290    2.04436570729150   -0.90504192748368
H          -0.99804983531873    1.31986809375100   -0.92136318503094
H          -0.12938200652417    2.16686907790321    0.03768358751260
H           0.87830046467931    1.19332109460454   -1.47339012190181
N           1.55762581960852    0.38249636513875   -1.60547632606357
H           0.96783737049732   -0.45739800922011   -1.86908656651328
H           1.95254826704253    0.16521922665035   -0.63913750603206
H           2.27581542961314    0.57585925463706   -2.29392422497877
