    23
        -45.38252912  Gyration_radius:  2.27576176853 Dipole_moment: 2.962
 S          -1.85699679768230   -0.40821059568181    0.17112297305718
O          -2.30700806653344    0.73862991594183   -0.60647736082226
O          -1.07092570985554   -1.32607511565304   -0.64820284117499
O          -1.18829536904905   -0.04110898751718    1.39963546722560
O          -3.16316757294492   -1.19686768280766    0.59650964059168
H          -3.63537486558256   -1.29576886041273   -0.22453636149444
O           2.41408073593858   -0.52153939113612    0.49372879918577
H           3.28040643704853   -0.85784666800927    0.72547912636792
O           1.06035725910202   -0.28641507451527   -1.89934045861256
H           0.27793218817637   -0.79723944944554   -1.60688970405754
H           1.71325056049087   -0.40484866895368   -1.18611874729385
O           0.50394483249936   -2.11779893402489    1.32385011184470
H          -0.01112092685165   -1.51507478156642    1.87937258722852
H          -0.01786470907670   -2.12812076473640    0.49910150494740
H           1.75324361327499   -1.18174135311964    0.84483945969998
O           0.89021552707587    1.64860698266043    1.26687228653871
H           0.10717991854206    1.12111061131064    1.52288015898863
H           1.58887769547608    0.99118030397911    1.09923015100786
H           0.37071228994832    2.04812371958924   -0.18390279118795
N          -0.06526542990611    1.95397901176121   -1.15207821431256
H           0.45908335416869    1.16306303597531   -1.63843668746613
H          -0.05343460162648    2.82056553899155   -1.67747755560722
H          -1.04983033265086    1.59339718739174   -0.99916154465970
