    23
        -45.38252885  Gyration_radius:  2.27579223574 Dipole_moment: 2.955
 S           0.61926801506306    1.75893635616083   -0.40942227783052
O           0.44761790946592    1.61789786235905   -1.84920682162793
O          -0.66186019947941    1.67365730118049    0.28580811080651
O           1.61508698517002    0.86575860217957    0.13972683965556
O           1.16055125998790    3.22795589582471   -0.16818671271805
H           0.54970626634970    3.76898988001431   -0.65905839654639
O          -0.51106841811072   -1.81026201750651    1.67445112335573
H          -0.69172251131628   -2.38803179371823    2.41668530776895
O          -2.12445666673623   -0.52865560734309   -0.16176142430204
H          -1.77830470359472    0.36694358799899    0.02957076034595
H          -1.74088845474150   -1.09513226643339    0.53166360594530
O           1.37529399785481   -1.76182326077245   -0.34142311391469
H           0.38456471616738   -1.37446823746888   -1.52552842228760
H           1.68396319778632   -0.85271444896794   -0.15382571031635
H           0.78562464068437   -1.98218223986031    0.40184971685230
O           0.32231618981747    0.54819041019245    2.46695065182470
H          -0.24236783850195    1.08393626416540    1.87783533740025
H          -0.20151117811010   -0.94409134746882    2.06166242593179
H           1.18121954813867    0.60053397659414    2.02380286070320
N          -0.36550002626061   -0.84981981318726   -2.07192412907607
H          -0.02923430026783    0.15212035353360   -2.14815001535777
H          -1.22502336750330   -0.81834201243841   -1.44177464094831
H          -0.55327505186106   -1.25939744505003   -2.97974507566726
