    23
        -45.37890829  Gyration_radius:  2.28811875456 Dipole_moment: 2.681
 S          -1.59084001467262   -0.47000603578152   -0.13793547174553
O          -0.46147680187618   -1.28493158446593    0.27311629786613
O          -2.17653997601889    0.30510196988123    0.92848070264568
O          -1.24139996106621    0.35500927197734   -1.29823415928461
O          -2.71721815270855   -1.47062226136485   -0.62997578721744
H          -3.50393263560330   -1.04352244271545   -0.30718320190087
O           0.87923375823291   -0.82526438530527    2.56509474321816
H           0.29409967365186   -1.13212601765871    1.84724909608022
O           0.60522489882255   -0.78663099589235   -2.87895240171689
H          -0.13334298965402   -0.36797278309806   -2.39209587654093
H           0.26127941661188   -1.61207095275216   -3.22278836097141
O           2.00553804988811   -0.65651059893090   -0.56787018198943
H           1.77307196465340   -1.03071686299216    2.28221455002008
H           1.20438389346846   -1.06922418808154   -0.18749800943053
H           1.86492691301918   -0.76086299480802   -1.52700220004068
O          -0.18564238949414    1.60523448882299    2.13616970539085
H           0.49132711043433    1.76585975389179    0.76600850897637
H          -1.05050243943039    1.24920738686671    1.84469938118478
H           0.25914618016804    0.83600704023252    2.54843912261334
N           0.80304299407816    1.66497313887308   -0.26366346270894
H          -0.04749543465108    1.34608576691148   -0.78815536887081
H           1.48847482545867    0.85514237730644   -0.34850471641521
H           1.17864110675271    2.52784091942558   -0.64161288936134
