    23
        -45.37662526  Gyration_radius:  2.35459613575 Dipole_moment: 4.513
 S          -1.18695129107369   -0.93643779678109   -1.15080484123359
O          -2.54674607280071   -0.55380205102036   -1.39751237731005
O          -0.19064202527525    0.03179768286192   -1.62370866728606
O          -0.89778708104909   -1.31679481958488    0.22607673113153
O          -0.93259749565283   -2.24687032027425   -2.02277227347673
H          -1.79889068743296   -2.42686467596677   -2.37362673889485
O           1.44767059799101    1.93782170854562    1.47433339604303
H           1.28864580221588    2.82738989736813    1.15375100991644
O          -1.82482920640528    1.97084493643171   -0.68161404948387
H          -2.58139022625039    1.40074691575104   -0.86952453382886
H          -1.10718314543555    1.54403111896478   -1.17400205321475
O           1.39697202280286   -2.19599343990956    1.10911499666116
H           0.48498342368098   -2.03761019244228    0.76662072510237
H           1.96677205380181   -0.88041563736565    0.31768827684779
H           1.32592992432416   -2.14666995339761    2.06483071943640
O          -0.96010970860634    0.96468531863676    1.66962504479392
H          -1.39807772423351    1.50841182611412    0.98374339917627
H          -0.98428954375854    0.06200766425583    1.30448824460823
H           0.54229956484623    1.56905470307757    1.68960544095494
N           2.01521687409443    0.01221742609023   -0.23893248040705
H           2.86923749002237    0.06758659132769   -0.78233980791703
H           1.91325119951069    0.83177773841815    0.42793536333132
H           1.15851523469297    0.01308535890495   -0.87297555494039
