    23
        -45.37662529  Gyration_radius:  2.3544949471 Dipole_moment: 4.514
 S           1.05019383960120   -0.48799804409292   -1.50688922381607
O          -0.41384695008050   -0.58306036787123   -1.47154238744210
O           1.55901823456943    0.44081316135636   -2.47376623990855
O           1.57108472537381   -0.31378630432177   -0.15694355079079
O           1.54444586040796   -1.92909235404867   -1.97711847983501
H           2.10399866998880   -1.71898124083193   -2.71776039598101
O          -1.82088546563395    1.18244858385848    1.81850862521179
H          -2.45131422309850    1.75400470130645    1.37660118419396
O          -0.46031018684053    2.10874885701405   -1.73483792191178
H           0.36179350135600    2.05609839827128   -2.23890039087664
H          -0.76597465491200    1.18888841176906   -1.72652608799804
O           1.02297518761761   -1.83787421803636    1.89145996439642
H          -0.51837684325429   -1.58761402065385    1.39815913634168
H           1.37884426069940   -1.36218489526688    1.10333978916195
H           1.33399548623518   -1.34400687962988    2.65319591999495
O           0.45078828465776    1.94868586664989    0.80139569709377
H           0.99024686928775    1.17143701192141    0.56982061157597
H           0.12511377608203    2.27536214311413   -0.06179226897076
H          -0.91985073682974    1.53060127525170    1.55590073634832
N          -1.35674658708305   -1.23504164512588    0.86731544216701
H          -1.66207675049849   -0.31191256977742    1.29347730704715
H          -2.10689744966942   -1.91685436205365    0.85814622620147
H          -1.01621883795204   -1.02868151881173   -0.12124369223270
