    23
        -45.37662521  Gyration_radius:  2.3544971855 Dipole_moment: 4.511
 S          -0.99496211089290   -0.12559260670920    1.61378691285514
O          -1.30289375296075    0.82680718062544    0.54060454204113
O          -2.02326531895294   -1.09485613733170    1.85766332920178
O           0.33755602134180   -0.68280177460185    1.41851303757652
O          -0.90236373572245    0.76123736155018    2.93561361620405
H          -1.50205261628374    0.31220061055641    3.52258138280193
O           0.89422899488007    0.01284624389103   -2.68740780344323
H           0.16490542384682   -0.02657487672833   -3.30862369018031
O          -2.31627478208041   -1.26450807198443   -0.84319258376551
H          -2.56284113278416   -1.67829899642093   -0.00611917107989
H          -2.12595303072030   -0.35038349443822   -0.58240514614514
O           0.30708930171609   -1.88251891152232   -1.00060414349263
H           0.44655418288271   -1.57082201602257   -0.08839209953465
H          -0.66600370651046   -1.87921116794752   -1.10506320965044
H           0.77943651848471   -0.78530774583271   -2.09432759242435
O           2.52569956334101    0.69830101451373    1.06695206643654
H           1.61173168047039    1.46449454206701   -0.05514574974239
H           1.75129789224576    0.16769916750353    1.37165636194796
H           3.17056969864555    0.05897819783714    0.75665746643538
N           0.81061719707635    1.72987924975644   -0.68507003477613
H          -0.07774406451572    1.43837777193195   -0.17364576373635
H           0.86925344377460    1.14619299793515   -1.56984303851393
H           0.80541432267663    2.72386146140975   -0.88418868900367
