    23
        -45.37364232  Gyration_radius:  2.26196917782 Dipole_moment: 5.690
 S          -0.17488222477882   -1.35162893178182   -1.18194736665128
O           1.24252651814857   -1.19304942100010   -1.42207044604553
O          -0.53604362010535   -1.62284488170561    0.18743856481885
O          -0.92987985141669   -0.21129417383367   -1.72438377064508
O          -0.62999357719986   -2.61214276541577   -2.02774046365542
H          -0.11528138734882   -2.52827807114246   -2.82427936841608
O           1.22801669591718    1.05009539079711    1.76173801278815
H           1.70540579028408    0.19662577875642    1.67446906519248
O           2.11336645657067   -1.40508392889979    1.10164718484509
H           1.38984531469976   -1.95386601989010    1.41693380313209
H           1.96250035416168   -1.34052569400152    0.13981259568124
O          -1.21196194602178    0.18401738001531    2.01865397993319
H          -1.07463293795363   -0.64273725240942    1.51133675125065
H          -0.28589920170241    0.54133803662447    2.13939962414650
H          -1.65777584167978    1.02325336037140    0.94833828225844
O           0.93299958570152    1.58941189037969   -0.95486932634402
H           1.18575876103375    1.39891655436138    0.85568884325860
H           1.82881510366539    1.38943051842786   -1.23671927664507
H           0.38881866373019    0.88133255249997   -1.34349513524077
N          -1.83212461787996    1.55923801710848   -0.02521651219246
H          -1.13810461759149    2.29760411703441   -0.13013130052395
H          -2.77410244026193    1.92186475325996   -0.12031208803310
H          -1.61737098997990    0.82832278044763   -0.76429164291713
