    23
        -45.36831505  Gyration_radius:  2.34497859655 Dipole_moment: 5.175
 S          -0.99436732372140   -1.42069487375029    0.39231732310210
O          -1.42537030087057   -0.46765543750260   -0.62215299227223
O          -0.57539562426462   -2.68625884588481   -0.20414057351812
O           0.01597909985234   -0.88601804284142    1.27637911883165
O          -2.26273348468697   -1.73390120848389    1.28446432571636
H          -2.90980775186134   -2.10006309033576    0.68725188377781
O           1.43334283622736    2.32122886387108   -0.46452764305227
H           2.27889260804563    2.66915374962646   -0.18122846594818
O          -2.29440112055409    1.92365040801055    0.22362918825570
H          -2.07061192533322    1.02729061950935   -0.09560429533832
H          -2.14536915007270    2.51185338610996   -0.51961955933973
O           0.90056800933918    0.11046679800721   -1.81400148383043
H           1.57656108260106   -0.97692225651094   -1.08977577645283
H          -0.02845866345427   -0.04512522291177   -1.54436528714683
H           1.14136558926374    0.97979591865729   -1.40949560409719
O           0.00919769147792    1.78760258317064    1.66964690302968
H           0.89983803831606    2.17869554554506    0.36617784568197
H          -0.89238724777893    2.00154126284249    1.36271935658250
H           0.03635837224082    0.81374462920378    1.68208239593638
N           1.83130750138337   -1.82011219627488   -0.42011281993837
H           1.89235031971538   -1.44700272699972    0.52971042822261
H           2.65389081543868   -2.34528187645087   -0.69775277134115
H           0.92925062868914   -2.39598799660360   -0.41160149685930
