    23
        -45.36831502  Gyration_radius:  2.34494344427 Dipole_moment: 5.171
 S           0.93815819388573   -1.39635543237576   -0.57495175991434
O           1.42060181759925   -0.58005608543332    0.53144772112067
O           0.48887871196058   -2.70848188294391   -0.11739136477363
O          -0.07089498529120   -0.73257837923173   -1.36836994567923
O           2.17762475711814   -1.64395092255879   -1.52637012561243
H           2.82437158032278   -2.09480332914524   -0.98980730746516
O          -1.34570613280026    2.29558545885691    0.75982391653074
H          -2.18449377338812    2.69981644762448    0.53779338588641
O           2.35323878729908    1.86391351598799   -0.05666330517732
H           2.10544052273143    0.94439050996968    0.16362200160300
H           2.23937232763328    2.36746977086662    0.75208592296141
O          -0.86082374550689   -0.07085658243942    1.83557050857300
H           0.05700237725809   -0.22316513458425    1.52831316869022
H          -1.08026156690567    0.84620643042264    1.53857830038432
H          -1.58693278913615   -1.04639489046969    1.00778943329800
O           0.01795292396216    1.96699778022439   -1.45382862967258
H           0.93211595045892    2.11608097188634   -1.14578016417585
H          -0.04217041001295    1.00234956939546   -1.57680988366195
H          -0.83352952948713    2.23302442605922   -0.09385085332350
N          -1.88271409494307   -1.79857550019296    0.25217226349388
H          -1.00091646758433   -2.39755223828766    0.15709113593291
H          -1.94922544252500   -1.31688929880668   -0.64710269154263
H          -2.71708901264733   -2.32617518482151    0.48663828252401
