    23
        -45.36831499  Gyration_radius:  2.34496587432 Dipole_moment: 5.168
 S          -0.19180421117555   -0.51210559028001    1.69164337639136
O           0.97780736795150   -1.12266563472988    2.31781419015112
O           0.04778109390516    0.88628833916931    1.35951594908960
O          -0.66137933106738   -1.28735304239113    0.56610106715863
O          -1.34827277788744   -0.52722505688073    2.77105871282808
H          -1.01438446414416   -0.02378904358171    3.50897481448810
O           0.08731421896358    0.83609159259189   -2.63665276622601
H           0.09942133636481    0.40232409905969   -3.48986882003770
O          -1.97260648264842    2.25068807635250    0.24374847425323
H          -1.25892974981367    1.79678835080366    0.73373800597000
H          -1.54621251276602    2.95553682987718   -0.24818449562268
O           1.81157512353604    0.65157675094719   -0.64027104533356
H           1.96752200904614   -0.78680668231158   -0.37385056544082
H           1.24870324491894    0.78214678370912   -1.44242501209527
H           1.24221606269824    0.91259324322918    0.11319276713633
O          -2.04541515671504    0.03666807982541   -1.34037004338573
H          -2.28819458898755    0.84187327361471   -0.84487516655583
H          -0.75946594487052    0.55137127509730   -2.19292813389368
H          -1.65492976494844   -0.55225846027324   -0.66956895692751
N           1.88077773262747   -1.81796141561200    0.01780815300431
H           1.70106423297881   -1.66031085793944    1.06097017566997
H           2.67944692268382   -2.41216742236556   -0.17858191575281
H           0.99796560935118   -2.20130349790909   -0.32698874486616
