    23
        -45.36629898  Gyration_radius:  2.36410158951 Dipole_moment: 2.442
 S           1.77895657518708    0.39370533035818   -0.17229147583374
O           2.68379744439670   -0.46124322380452    0.55453646010255
O           1.05150925409732   -0.31951792559520   -1.21945313542740
O           0.88067895503102    1.18271704091606    0.65203757667692
O           2.69117688183080    1.45986385832339   -0.92614603014046
H           3.45571966031362    0.93386003231761   -1.13456584723090
O          -2.25632584931674   -1.47728767361142   -0.31487802537640
H          -1.88547325616727   -2.34179247004184   -0.50464238048086
O           1.21757967142941   -2.47703519621589    1.44056346984072
H           1.80463005501808   -1.79743567552894    1.04337478979756
H           1.68693003757303   -2.80986346319077    2.20798438305106
O          -1.28375392986173    0.27424904796313   -1.86509494978121
H          -1.77813510631428   -0.45375087591550   -1.32869600262213
H          -1.42114673773774    1.19858768132702   -1.28405051431286
H          -0.28957137186272    0.04034366131597   -1.69779188968792
O          -0.77432987803925   -0.68494059388310    1.66978106209804
H          -1.78664490491595   -1.16345360965286    0.51281673377657
H          -0.15164280888841   -1.43911496476764    1.71680203725554
H          -0.21775546064231    0.06770227742038    1.40051791488412
N          -1.40068884909866    2.29652928753423   -0.37889751609703
H          -1.34615312402091    3.22500278007398   -0.77548888773716
H          -0.51420113496379    2.08136838845701    0.09739372729641
H          -2.14515615306221    2.27150627620365    0.30618851995297
