    23
        -45.37662523  Gyration_radius:  2.35448648622 Dipole_moment: 4.515
 S          -0.43127003217733   -0.01277700579529   -1.85023896257863
O          -1.26764318337745    0.95779216902522   -2.49417826708924
O           0.82026859433854    0.53074336312082   -1.30975184068616
O          -1.09969536391700   -0.82396913392831   -0.84065551559483
O           0.02158233020867   -1.03077875567261   -2.99079056843330
H          -0.47695487994591   -0.72676901004390   -3.74225904974919
O           0.64427228508430    0.68904872922182    2.67072405271350
H           0.88970164932519    1.61222922200209    2.75392550104735
O          -0.62193637119030    2.65914149974720   -0.46945027827753
H           0.14225603851868    2.11200282680831   -0.70693572128386
H          -1.21561590502431    2.53471057460716   -1.22089918594893
O          -0.01136914161754   -2.78528145565149    0.49641428309525
H          -0.62378845369507   -2.96012070950233    1.21423916412147
H          -0.48719293881387   -2.17419165104100   -0.11534105920440
H           1.16683885282042   -1.67803566680943    0.75356944964440
O          -1.54476441838496    0.80732034326681    1.26468909610973
H          -1.37022302782872    1.64311297639994    0.78628766981397
H          -1.52867662330968    0.12890872025862    0.56592120908566
H          -0.26351683527404    0.69412595645552    2.24902007763728
N           1.71498326669747   -0.77873683050595    0.75651045520507
H           2.71409815074450   -0.95021417979722    0.76305771424581
H           1.40485369139643   -0.19707157151636    1.58858566552396
H           1.42379232539392   -0.25119045062813   -0.12244389939549
