    23
        -45.36831501  Gyration_radius:  2.34502322377 Dipole_moment: 5.164
 S          -1.12144208744358   -1.27214024167436   -0.53656776614508
O          -0.64794265883088   -2.13687861148928   -1.61400795887089
O          -0.32659817770038   -1.44038501192535    0.67304383968312
O          -1.21901795554505    0.10587827260152   -0.96079044181487
O          -2.58846694350531   -1.74586590957416   -0.18144642775735
H          -2.50423136140937   -2.65826391155216    0.08295756060335
O           1.58512490963472    2.05714885163206    0.95584692299974
H           1.86388341541014    2.91266057207206    0.62923126148082
O          -1.02791379932331    0.00385003771102    2.82050982485554
H          -0.81669936107141   -0.59765496563887    2.07951040302276
H          -0.22175586484884    0.07979678056197    3.33531936383277
O           1.99858633537289   -0.34368483062821   -0.07286411287254
H           1.95734725020267    0.55345904628398    0.34022317625584
H           1.25528647823453   -0.84069177595935    0.32770837408766
H           1.54715828393219   -0.26614199577850   -1.47117204366273
O          -1.03489036855821    1.99503482325778    0.96302376549559
H          -1.21584879147496    1.45051451350397    1.75276181246518
H           0.58883206147936    2.08624896544646    0.99445786008419
H          -1.21758235615900    1.40146849742151    0.21233210323017
N           0.96497404623137   -0.30612504482126   -2.41107070645097
H           0.28063330969765    0.45274988071079   -2.37771419585199
H           0.37341860499423   -1.18903912154327   -2.28554094030974
H           1.52714504068238   -0.30193883062303   -3.25575167436424
