    23
        -45.36831501  Gyration_radius:  2.34493894598 Dipole_moment: 5.170
 S          -1.59226210021979   -0.57900514353884   -0.53847648947744
O          -0.38211801749676   -0.94965341498363   -1.26054826535853
O          -2.14833784792176   -1.71335366736058    0.19426879688112
O          -1.40969826030668    0.57182061628552    0.31626189199276
O          -2.66192813813397   -0.17180522146861   -1.63062033572166
H          -2.77892070412022   -0.94686723845621   -2.17379746423429
O           2.45393478413092    1.06776557389092    0.70425091764297
H           2.78426794416446    1.59885491649512    1.42888232037784
O           0.80514800338001    0.95174218417801   -2.73149317494613
H           1.72331548161464    0.67838069784937   -2.78490989685430
H           0.33544721698743    0.22439709188935   -2.27783459490840
O           0.47445026636936    2.36157968718375   -0.42513431136677
H           1.74009963390194    1.60965582779915    0.26631149485906
H           0.58545436367008    2.11206811765930   -1.36227521674474
H          -0.29289160290862    1.84156578341716   -0.12504053814812
O           1.33375187895182   -1.32693585214532    0.75895415632814
H           0.82352842266043   -1.30567865317243   -0.07724587660118
H           1.85298318240010   -0.48565835711375    0.76227959433065
H           0.24280730997895   -1.23923921156824    1.74195532394349
N          -0.73225538766615   -1.11540583125021    2.25002507470598
H          -0.95536375607739   -0.11775775836470    2.24169226871827
H          -0.78110802323964   -1.52906986798279    3.17523498428348
H          -1.42030464011916   -1.53740029925101    1.54725936029785
