    23
        -45.36406414  Gyration_radius:  2.38345758926 Dipole_moment: 2.250
 S           1.16451116973113    0.08169206439560    0.29266295598914
O           1.52613374587481    0.18451225200116   -1.10852539117847
O          -0.04771232586556    0.85288690302598    0.58600289914592
O           1.00940096446137   -1.30815764688046    0.73021840087929
O           2.31133602692192    0.67221224471016    1.16121034571784
H           2.43106998748946    1.57966421321468    0.77039575469585
O          -1.76248901292762   -2.36961363500186   -1.41714454408904
H          -1.15842531349441   -2.92673427946990   -1.91199540210887
O          -2.06172622377977   -0.09510605457304    1.88050065663169
H          -1.31937873150752    0.36228325723607    1.39546110352865
H          -1.93304650919196    0.10026475651727    2.81042622277272
O          -1.20840383222859   -2.33147934186924    1.04966086107732
H          -0.21013358924166   -1.96300109473588    0.96060893179693
H          -1.70262022966131   -1.51875969515709    1.43779351636970
H          -1.51661472824699   -2.42620850015405    0.06338229748507
O          -0.97968249312027    0.07485758749925   -1.90107463572853
H          -0.00201517990290    0.07103148640827   -1.81296958089020
H          -1.54665618611905   -1.42949013830605   -1.67587947021172
H          -1.26519289738948    0.63355390191426   -1.16955739062537
N           2.17011981501558    2.82515862905377   -0.31804476040106
H           2.00731738413914    2.13433123280242   -1.04617327398138
H           2.80988021860570    3.52784585715044   -0.66609415556233
H           1.28432794045880    3.26825597024175   -0.11086536132775
