    23
        -45.36406402  Gyration_radius:  2.38324813796 Dipole_moment: 2.254
 S          -1.09616002678893   -0.06587209864308   -0.49609341781484
O           0.05305743811362    0.83779445801408   -0.60958479790507
O          -0.78729847901979   -1.37771361351589   -1.03325357208297
O          -1.56993907711424   -0.12561261578350    0.88915703447491
O          -2.26101334303880    0.55994830242830   -1.31439849182170
H          -1.92250301429960    0.50125635110659   -2.24848766488392
O           1.37857697416722   -1.55996222063746    2.52762874840279
H           0.89864857912976   -2.37973516207120    2.66114577654019
O           0.95107219877467    2.25377271609366    1.34446361453836
H           0.65623280738986    1.76305740262159    0.52721447960231
H           0.51384811290855    3.10668577999213    1.31610523933815
O           1.65613339172071   -1.35254933196624   -0.06100022989238
H           1.58869699544081   -1.51810825484782    1.55218428881780
H           0.78035530691038   -1.57218079443046   -0.44657899853731
H           1.76690776294531   -0.42062567983128   -0.27998276004685
O          -0.11421099583716    0.46417422313291    2.78709370980279
H           0.53240045460536   -0.34750359972241    2.78954361658465
H           0.39452698216853    1.24681299972828    2.35784985730537
H          -0.82006394531425    0.21393026282993    2.02631282343716
N          -0.86301174611930    0.06311054050025   -3.46891466856839
H          -1.04943166676685   -0.19012622301437   -4.43080947801981
H          -0.62921176959769   -0.77572213891335   -2.94394977705844
H          -0.05761294038822    0.67516867691637   -3.44564535219418
