    23
        -45.37772291  Gyration_radius:  2.31636559901 Dipole_moment: 2.189
 S          -1.62855948582872    1.08127389547681    0.21001599002908
O          -1.02351026324925    2.19877754943759    0.92515040145007
O          -1.22848686253481    1.04228536680143   -1.18016708923145
O          -1.42044887653579   -0.18661600074884    0.89169300206930
O          -3.19598167879688    1.32215229120848    0.23037869981012
H          -3.29042063197372    2.10065423358714   -0.30944747986731
O           1.31702376501856   -1.98003146297627   -0.85777463056371
H           1.70211118335866   -2.66247795253733   -1.40883070556022
O           1.35521463002195    0.67627448550686   -1.61373783752507
H           1.43734927485302   -0.28459295148628   -1.47077775308532
H           0.38694599816468    0.84157027597993   -1.64825158112518
O          -1.31482131453504   -2.22436449438367   -0.75666799920790
H          -1.71539182818721   -2.92777697840689   -0.24194515874088
H          -1.45213054997564   -1.40118669739591   -0.23423435345003
H           0.33561200410779   -2.10570388344387   -0.89904686320688
O           1.04465363564133   -0.90323863775773    1.71025348748114
H           1.48945409631716    0.61366826148656    1.35336006215000
H           0.08651698129220   -0.74170651977310    1.59989320685790
H           1.30138619005672   -1.42311765049834    0.93214033808835
N           1.49254507099120    1.54093068420614    0.84063125274206
H           2.20394874515103    2.17759855281124    1.18070498274643
H           0.51483243885047    1.94166810403676    0.94614845324863
H           1.60215747779281    1.30395951886532   -0.19948842510693
