    23
        -45.36629902  Gyration_radius:  2.3640201566 Dipole_moment: 2.437
 S          -1.58185619866587   -0.32398828067684   -0.86125815771522
O          -1.32119116780624   -0.85040119572586    0.47644474184949
O          -2.53248136607389    0.75962738295616   -0.85473306638597
O          -0.34532739365598   -0.05476665208690   -1.57357423857139
O          -2.27324563391290   -1.51075597035864   -1.66791435650766
H          -3.18409405986754   -1.39689972469128   -1.41875952705965
O           1.61101388855703    0.47385867154368    2.13271589954881
H           0.97128816992630    0.77444134163031    2.78186080667617
O          -1.57462959986972    2.54977643838154    0.84123009819403
H          -2.00382872997429    1.86413984528856    0.28444487662263
H          -1.95848980313814    3.38499493289087    0.56728275413924
O           0.85886968846921    1.76714402728603    0.00556143350423
H           1.43130422876318    1.01938177687799    1.31156861511600
H           0.50511330960129    1.15073993680951   -0.66052665699022
H           0.06523684508479    2.21547566234939    0.36306625776565
O           0.90638032372583   -1.75057097504398    1.14704402905392
H           1.42244445274877   -1.74688167882353    0.17570913449614
H           1.26210554317110   -0.91906479787218    1.64137345396078
H          -0.05810503687396   -1.46866050859527    0.89877277437475
N           1.90708501769121   -1.55684012093973   -1.14952331063888
H           2.73325725242927   -0.97454707110454   -1.20032237962862
H           1.11092291680295   -1.02362323792821   -1.52475305319230
H           2.04822734284285   -2.38257982214615   -1.71571012861910
