    23
        -45.37662527  Gyration_radius:  2.35460207444 Dipole_moment: 4.511
 S          -1.81046387526611   -0.57022404819985   -0.08657343404702
O          -2.72582374184101   -0.20393117442396   -1.12790342406901
O          -0.67814276012755   -1.38821873360111   -0.53647874012185
O          -1.33083147519247    0.54059963159538    0.72592809927515
O          -2.62770048068941   -1.51108493388637    0.90788654799123
H          -3.50841820404451   -1.46641865494040    0.54982331097994
O           2.66681220142286    0.78694638290047   -0.54217550241710
H           2.92270319949447    0.59455357804625   -1.44604342844563
O          -0.55013585856782    0.22291066609954   -2.70595078907306
H          -1.50489266429530    0.35417541470883   -2.64314873316697
H          -0.40031908799718   -0.54139513436271   -2.12890644522048
O           0.24415277946191    0.33554222407139    2.79848887913755
H           0.53907657026686    1.23225909737939    2.97098531686006
H          -0.48329518002763    0.41806437463910    2.13650488526169
H           1.13310456569859   -0.57621395659735    1.76867920924443
O           0.35667428463078    1.95151331585515   -0.84112723833603
H          -0.27871161858430    1.60075150658508   -0.19153837398178
H           1.84459150569981    1.35315213056554   -0.61561002092560
H           0.08646589253557    1.53424509992354   -1.68422956472823
N           1.46985895149344   -1.06989591416402    0.90160534846833
H           0.59943043700227   -1.28079880971623    0.32375223972302
H           1.97095154432248   -1.92165137281464    1.12763833510300
H           2.06491303462764   -0.39488066962676    0.33839353248598
