    23
        -45.37772291  Gyration_radius:  2.31647573074 Dipole_moment: 2.189
 S          -1.92100325198016    0.15159639485734    0.39094182205785
O          -1.47660869997825    1.29287320283584   -0.37992230617367
O          -2.37454980170219   -0.94311391877284   -0.45883765045704
O          -0.93848154389615   -0.28311051840466    1.37136742885106
O          -3.17868392138779    0.62732339964402    1.23201586142520
H          -3.74543751758760    0.99614613259259    0.56183698461786
O           2.41400585290620    0.73564041347770    0.15223638391891
H           3.22297279146422    1.24889240244180    0.14594014307305
O           0.61629066617355    0.86515929808075   -1.94029335662977
H          -0.16806695010700    1.19938312256628   -1.45131884133227
H           1.34566578439541    0.90395906097791   -1.29455014918532
O           1.19539079210395   -1.74145409950983    0.61020424090534
H           0.45340560835591   -1.88292930052742   -0.82387880589189
H           1.82411443894459   -1.01210445785383    0.49029193867218
H           0.42857978876080   -1.34040372276217    1.06563311927628
O           0.75958739701702    1.60684773617321    2.02311161129777
H           0.02275601928613    1.00727029354590    1.76414158834231
H           0.93327616451880    1.41943881290691    2.94769800795936
H           1.83018460359644    1.13938049565518    0.84274483718998
N          -0.15571495665163   -1.60609065259460   -1.64540582594214
H           0.19502382151872   -0.64387197668217   -1.96337152166818
H          -1.12902311378351   -1.44526843715429   -1.25240824403111
H          -0.15368395199207   -2.29556367149591   -2.38817726626714
