    23
        -45.37772210  Gyration_radius:  2.31635083338 Dipole_moment: 2.190
 S          -0.98345674946176    1.26133994794780   -1.14308296032305
O          -1.99280356543351    0.32838136427787   -1.63013511989109
O          -1.17560958690070    1.59413823040196    0.25204027407835
O           0.36898142636197    0.81150601394474   -1.43302148127232
O          -1.17006720874193    2.60389164262858   -1.96661219592017
H          -2.02716409425948    2.90282387462497   -1.67960886801215
O           1.77858259618017   -0.62864015053287    1.68357728990555
H           2.35437236550978   -0.66132069221102    2.44847611873396
O          -0.96356468308929   -0.42542432695710    1.94696208453070
H           0.00472394122514   -0.51850774947482    2.01125568751233
H          -1.10182402526996    0.42647447497183    1.47650097946073
O           1.12926426980786   -1.69927933181618   -0.81807308558424
H          -0.43770592447526   -1.98880439804781   -0.52401075993906
H           0.98218429361771   -0.81886426225776   -1.21756904779711
H           1.51185742593255   -1.51650190405875    0.05481316827467
O           2.11628328282069    1.62797288978255    0.34539266378951
H           1.92633262401516    0.25302777496261    1.25772063060839
H           2.90362797719119    1.76361164150595   -0.18552642323298
H           1.39045054844739    1.45087755558560   -0.29579644581754
N          -1.43385977800060   -1.78820838743932   -0.22375389621436
H          -1.36721607432866   -1.36321616845433    0.75862702532969
H          -2.03043827976630   -2.60651754766051   -0.26338923238931
H          -1.78295076137977   -1.00876048172156   -0.85478641583028
