    23
        -45.37772282  Gyration_radius:  2.31635766743 Dipole_moment: 2.190
 S           1.41626901692108   -0.32480370315591   -1.32442980187573
O           2.04953200092114   -1.45326952576443   -0.65229819160408
O           0.12443217253852   -0.67282448912860   -1.87595833073584
O           1.36839753200872    0.86114113648205   -0.48368780636983
O           2.34978466833909    0.05919103877774   -2.54776742144950
H           2.27036131548714   -0.70279167161573   -3.11296033617586
O          -2.07381543515291    1.15341753172382    0.87188517243114
H          -2.94767996160031    1.53536759690309    0.96240980091109
O          -1.70965130056079   -1.40085506529473   -0.11437343914211
H          -1.16310271411021   -1.18615975306002   -0.90258769429398
H          -1.99245653614728   -0.53533219708879    0.23396841679001
O           0.42991122006043    0.70519184904935    2.03731275356865
H           0.91150330071304    0.90675905910611    1.21041880399884
H          -0.49125723059079    0.95038652120527    1.85563053787316
H           0.47088711742516   -0.90272817694930    1.84078160217101
O          -0.69139064208887    2.39852998291315   -1.00836520939482
H          -0.33981393269707    3.27674964814495   -0.84924268053281
H           0.08069144586726    1.78969673391919   -0.95709653567682
H          -1.63149937628729    1.63615477604586    0.12893018838464
N           0.41280735333392   -1.83187428390664    1.33476152123513
H           0.52744241407204   -2.62620633048446    1.95363955660493
H           1.15718181756847   -1.80473895465759    0.57798639805823
H          -0.52853426601319   -1.83100173316494    0.82104270522204
