    23
        -45.37772286  Gyration_radius:  2.31635574649 Dipole_moment: 2.191
 S          -1.65006850294144    0.50412398877106   -0.94256352688827
O          -0.74226251475718    1.62961971148642   -0.88421404114641
O          -1.44274188083330   -0.30863296883835   -2.13531438514738
O          -1.63934571902894   -0.29152902502097    0.27496876106797
O          -3.11573355062942    1.10111303402068   -1.04692450430751
H          -3.04483186315156    1.68841143455307   -1.79288469591366
O           1.67316613833149    0.15022579469825    1.88899378512916
H           2.28538109476394    0.46395819416251    2.55569203316873
O           1.82621666863515    1.01553038139925   -0.72940840259011
H           0.93805543769703    1.42905667475970   -0.80823543004041
H           1.90948787636670    0.78614510168111    0.21447528852520
O           0.35849703549224   -2.03780412023183    0.74252163159914
H           0.92965747940299   -1.45513268007137    1.26777136804429
H          -0.49072406453336   -1.55843808637735    0.66932366525191
H           0.80658057189372   -1.77420649155891   -0.79243691276743
O          -0.77125360543423    1.04590098492829    2.35798255807613
H          -1.29327614503149    0.67642114499516    3.07295966611467
H           0.79450615452139    0.55441599791835    2.10156631831342
H          -1.15342720283077    0.67414710345805    1.53023466736287
N           0.94709774463923   -1.23908252539330   -1.69607003373681
H           1.42873985998221   -1.78058219080365   -2.40453540324457
H           1.46553210443222   -0.33890259502188   -1.42978359286924
H          -0.01925311697501   -0.93475887350411   -2.01411879399860
