    23
        -45.37772280  Gyration_radius:  2.31630862988 Dipole_moment: 2.190
 S          -1.08338423708008   -1.46321745287620    0.74202342086686
O          -1.04696169467778   -1.54934172152045   -0.70205824207369
O           0.00477161834156   -2.20750464116521    1.36509323315364
O          -1.15931541493847   -0.09248424323023    1.22258941507774
O          -2.43315242229728   -2.15248349387921    1.20953459227458
H          -2.38252149591348   -3.00626509433778    0.79132517095603
O           0.35252214755193    2.10111018327832   -1.36099849038162
H           0.35294339139460    2.75989336908470   -2.05647035788945
O           1.09832140533976   -0.51279184211496   -1.85151252310487
H           0.25905788444462   -0.96204580966019   -1.60670782116182
H           0.88660113542762    0.43847991884640   -1.82529943960174
O           1.04413335185728    1.45739374676555    1.27251827816036
H           0.92943008731828    1.88603060914997    0.40954024794219
H           0.19580946742160    1.00120082195967    1.44152126725051
H           1.87449118256671    0.10409323287721    0.94902263586562
O          -2.11470030724349    1.56373390129046   -0.57329134969713
H          -2.59945268798163    2.19376030182165   -0.03639074462981
H          -0.59697753690751    1.91960532272132   -1.14611893404304
H          -1.84786901395441    0.84137558366761    0.04018531333850
N           2.06955844222257   -0.85470579569206    0.54229569809567
H           1.85469880940244   -0.78122522796472   -0.50577209885642
H           1.33213717417141   -1.50381698223939    0.94535396257347
H           3.00985872355259   -1.18079466678227    0.73361678588117
