    23
        -45.37772323  Gyration_radius:  2.31633580053 Dipole_moment: 2.190
 S           1.53334953768159    0.27193513007922    1.20080316822839
O           2.56902637061939   -0.21942628125028    0.29978577123575
O           0.99854715158205    1.54715558914503    0.77384365866117
O           0.49806464547084   -0.72064645008153    1.44289754021989
O           2.22730604892296    0.51395721359492    2.60627118020043
H           2.80723868673774    1.24672758904853    2.42460400732884
O          -2.43780312293922    0.16794824082959   -0.64551183305607
H          -3.32824865318715    0.47851403724027   -0.81412657001414
O          -0.22697476503243    1.54236083682907   -1.57058088909927
H           0.20398757552856    1.74002437998422   -0.70961005807258
H          -1.09103484754074    1.15884413425232   -1.33268476998760
O          -0.66981024974641   -1.99961112013237   -0.62128508055150
H          -0.26585199929613   -1.73100270239990    0.22780603956288
H          -1.43455683733046   -1.41229593266755   -0.73077940068398
H           0.48601289140776   -1.34160962519652   -1.54672866606299
O          -1.84674925756090    0.35087532905694    1.92625571852230
H          -2.27093044300336    0.30352572709119    0.32112820097740
H          -2.22950389666420   -0.26369372492588    2.55556578994548
H          -0.91051967943965    0.06755046120797    1.81376800439767
N           1.19295871540180   -0.62215443946652   -1.87135743896094
H           1.88050043798522   -0.49993050975328   -1.07129595064830
H           0.65964011405662    0.30517308292810   -1.94450806093658
H           1.65535157633841   -0.88422096540713   -2.73426036120031
