    23
        -45.37772249  Gyration_radius:  2.31634454007 Dipole_moment: 2.191
 S          -0.24384821220173   -1.41281178225967   -1.34510163326121
O          -0.82026601673742   -0.17059102672112   -1.81276901058868
O           1.15552353769457   -1.54985022208538   -1.73158408586288
O          -0.44567234989269   -1.62575584827401    0.07947910051487
O          -1.03192247013131   -2.58562642255026   -2.06556482888787
H          -0.95020112567860   -2.35261240077636   -2.98497757439686
O          -0.81871160462099    1.70121689585606    1.68147711904427
H          -1.28740717688828    2.41168169543695    2.12108798428934
O           0.27083749258040    2.03187347500067   -0.83482208590816
H          -0.23429999624187    1.33865325147341   -1.31478320703404
H          -0.14051257198543    2.07112755816819    0.04820042309583
O           1.08908065028495   -0.33596375125474    1.87961922342482
H           0.54477252485074   -0.96967513336432    1.37122108323293
H           2.00677275111379    0.10979548370568    0.62055500458627
H           0.50574477747919    0.42317358973120    2.03804925743287
O          -2.47139519480127   -0.26057824753553    1.03578713277378
H          -1.49957944663031    1.02632492961588    1.43340797169439
H          -1.79148808336187   -0.78262131537022    0.55142889812537
H          -2.81489892264348   -0.84738754647423    1.71243864555033
N           2.23961210005372    0.38783443159486   -0.37500964565260
H           1.94187893667474   -0.42648962510087   -0.98804312798100
H           3.21754900264965    0.62217976569774   -0.50087432632049
H           1.57843139842850    1.19610223548612   -0.61922231786536
