    23
        -45.37772280  Gyration_radius:  2.31632597115 Dipole_moment: 2.190
 S           1.22867352857134    1.43675349331826    0.53972806011933
O           1.86150108119440    0.57620363389519   -0.43653986291077
O           0.51238976759451    2.54298529807786   -0.08434909065914
O           0.39755511622917    0.70362688302104    1.48171957335472
O           2.39030098723821    2.07842349820234    1.40825365129872
H           2.95626014309856    2.45888083032055    0.74391104854626
O          -0.73061432147850   -2.41282132176306   -0.18830600254716
H          -0.76214455485867   -3.35711495416009   -0.34639224515170
O           0.21913681460829   -0.66088670745123   -2.10080417072199
H          -0.10647014148628   -1.38871797061908   -1.53983777569473
H           0.97118976824231   -0.27593266929906   -1.59845421204404
O           1.06054122716223   -1.82757849985174    1.66808575987384
H          -0.01615126518836   -2.26341124346484    0.48087549799481
H           0.95705706000833   -0.85281675525567    1.57558053537605
H           0.88256290267433   -2.02064598441874    2.59071909218681
O          -2.05778214746010   -0.13988460001773    0.76052242552900
H          -1.26303316302007    0.20029651496690    1.21765803452586
H          -1.87140020622098    0.78138497536064   -0.55951533041894
H          -1.81572700378957   -1.03388501566992    0.47101957081694
N          -1.36659404382273    1.26744992911026   -1.35427769397777
H          -0.79291999737337    0.50842815727577   -1.84906701980972
H          -0.65940506006790    1.91829849979408   -0.90273167736349
H          -1.99492650185373    1.76096401863814   -1.97779816832636
