    23
        -45.37772280  Gyration_radius:  2.31643044893 Dipole_moment: 2.185
 S          -0.83427503402732   -1.22776579449876   -1.28912855103361
O           0.41170569909840   -0.71765230269877   -1.81973063538956
O          -0.64577609500029   -2.45804801453764   -0.52946402584820
O          -1.57959420349820   -0.22739213006990   -0.54123604801309
O          -1.74708593716685   -1.59519768104103   -2.53301423800874
H          -1.18126860959718   -2.16880145737834   -3.03997117135434
O           0.84377465009034    2.25560049848807    0.77082355635099
H           1.28085639369196    3.10643370982634    0.82468399773760
O           2.21153067282118   -0.01150824536797   -0.01425968927134
H           1.68851020598881   -0.23997648421711   -0.81440886262831
H           1.86982186351012    0.85775460610535    0.26524852537250
O          -0.86823769908787    0.40147863570078    1.98033594623495
H           0.12014297365480   -0.88102476729469    1.90777026383887
H          -0.30003456157447    1.16130557480280    1.77691649948893
H          -1.33121820900405    0.20210839946974    1.14238799681584
O          -0.92764526363545    2.22823692374351   -1.19332401871885
H           0.22941177313739    2.30356191207836   -0.00434565204619
H          -1.14555413136798    1.27353062013251   -1.09105367267663
H          -1.76040119322232    2.69544057851599   -1.10166530399169
N           0.77245991642125   -1.59426767304623    1.47380919182452
H           1.52491550263610   -1.03156148819928    0.95692134343618
H           0.21168673764125   -2.09011736484920    0.72064661132904
H           1.15627454848349   -2.24213806565151    2.15205793655085
