    23
        -45.37772300  Gyration_radius:  2.31639115101 Dipole_moment: 2.188
 S          -0.81157401894655   -1.77039478627114    0.26892832191210
O          -0.32508229059707   -1.99837434749825    1.62450574365157
O          -1.83755288243124   -0.75085891242858    0.22166536621315
O           0.27109915869602   -1.52415343862151   -0.67059397484430
O          -1.48747070736148   -3.12387914795970   -0.20707242289525
H          -2.24620846612280   -3.18582137801788    0.36448831983518
O           0.42516342128397    2.13091998117961   -1.29189408880812
H           0.32139658774182    2.93602849091691   -1.80074452684925
O          -1.07677000042213    1.66701743540162    0.97861933914983
H          -0.60730591177491    1.97594897782952    0.18193127186905
H          -1.54036204700352    0.84864405008521    0.69335719591223
O           2.17558717377941    0.29648805653802   -0.10693319825769
H           1.65214939094862   -0.47514950521575   -0.40161912667688
H           1.77768901663572    1.05629054136182   -0.56077225028009
H           1.54718181224566    0.33585135985575    1.38643414093436
O          -0.43718590521093    0.03571348966790   -2.65685433729401
H          -0.31110361527704   -0.60039463163147   -1.91602743122333
H           0.04734552306248    1.39963386233616   -1.84249450963420
H           0.07952862761776   -0.31111904502765   -3.38684522108769
N           0.80445302645514    0.28813935540380    2.14056102165512
H           1.16762537322668    0.48733776774335    3.06548585295291
H           0.38077495847283   -0.68362016855357    2.07857707174767
H           0.03062178500671    0.96575199291768    1.83729746201950
