    23
        -45.37023138  Gyration_radius:  2.33349544455 Dipole_moment: 4.363
 S          -1.19363589886784    0.39195021913935   -1.09468054154635
O          -0.86601031844225    0.87529730662213   -2.42571538351129
O          -0.75256022993526   -0.96275357437889   -0.84075949531268
O          -0.73778379875585    1.33032187929618   -0.07715572003160
O          -2.78355671667272    0.34301260104757   -1.00002138545496
H          -3.08385574617827    1.11822053486346   -1.46653888500824
O           2.10474515171842   -0.73282802431742    1.83481494099004
H           2.18306830943158   -1.52667002734803    2.36575979046581
O          -2.09861283792108   -1.61238281395315    1.38119475574348
H          -1.60857780857540   -1.52515818583194    0.54217151010302
H          -2.98037657600520   -1.28318669826738    1.19850598331962
O           1.92314035527069   -1.03191207440504   -0.76796916763666
H           0.97470211231439   -1.25759356851793   -0.84543422969209
H           1.84451290793704    0.35573291925621   -1.20295768629139
H           2.09312254072463   -0.98089447877254    0.21057602622683
O          -0.29997346995430    0.21649102983529    2.33857270969108
H          -0.47389344307494    0.75341863314100    1.54485743751879
H          -0.92986247843444   -0.52360118980879    2.26639309027647
H           1.22800466120928   -0.33095719948404    2.07910081549494
N           1.50129972681832    1.38396507527070   -1.46480960296108
H           1.00349517435891    1.74047010147556   -0.63415150309779
H           0.71409874188202    1.25778561262621   -2.15239927612571
H           2.23850961103879    2.00127195234481   -1.78935414320621
