    23
        -45.37023125  Gyration_radius:  2.33331784808 Dipole_moment: 4.371
 S          -0.85652063235344   -0.84769285401563   -1.14844938052229
O           0.53919826437106   -0.49301399619422   -1.29078074247432
O          -1.08780562164600   -2.27638532550373   -1.01312953557010
O          -1.51543681521622   -0.11385310028162   -0.07587465405968
O          -1.54770236586804   -0.39588982716462   -2.51131737821627
H          -2.35782770120586   -0.89610156522943   -2.55651916701497
O           1.55327064386356    1.41095668098055    1.98237003889713
H           2.27611235639627    2.02508990564727    1.84588486192102
O           0.41383952160990    2.04436372574252   -2.13838073356967
H          -0.27924933454941    2.01173060525434   -2.80005122667918
H           0.59368635136805    1.11485394239774   -1.90326308981676
O           1.82598920750747   -1.00863901749868    0.99952012075841
H           0.57463989920522   -1.62338474558502    1.41869889900912
H           1.59313850545335   -0.83752492367639    0.06515562150223
H           1.82419738369159   -0.11200802066886    1.43007706629937
O          -0.41123301272109    2.28561556108320    0.46156574230247
H           0.78560187813570    1.78000585990141    1.46820132874691
H          -0.04283008999113    2.47016726152767   -0.42153071198910
H          -0.93923902536575    1.47727573409142    0.33345979325631
N          -0.48621103000398   -1.95795450191993    1.50110604180693
H          -0.68178771652578   -2.53283659917328    2.31419641810062
H          -0.71257173988281   -2.42209860138989    0.58335857291985
H          -1.06125892626393   -1.10267618832955    1.45570210439754
