    23
        -45.37023133  Gyration_radius:  2.33348894995 Dipole_moment: 4.362
 S          -0.64342803558233   -1.34347954765042   -0.74565493275548
O           0.11888823739073   -2.09873912014238   -1.72599035782414
O          -0.06752290114244   -1.36162210060027    0.58177974146606
O          -0.90650642772604    0.00743247245562   -1.22455869414471
O          -2.05588041959688   -2.06726552173474   -0.60286505015248
H          -2.28501236488608   -2.34093214276345   -1.48686940944731
O           1.18663136188340    2.27915814898506    1.31588671157134
H           1.19972926825568    2.48628288467792    2.25138500147153
O          -2.06961650663960   -0.44574843898394    2.10654382126423
H          -2.82955738517434   -0.92115553464856    1.76643542807971
H          -1.29389754436774   -0.85229572061181    1.67685114993997
O           2.24186046273464   -0.00723948572465    0.57045669805433
H           1.50212654999621   -0.61062561568225    0.78329066754015
H           2.05286020368098    0.05550744447946   -0.87204936278468
H           1.94754630512896    0.88260353453624    0.90307616145901
O          -1.33909014572401    1.80855305352397    0.73443499494074
H           0.22665750131879    2.17485510296921    1.07657974328331
H          -1.26163338558579    1.25737409405875   -0.06474536801005
H          -1.68840772666110    1.19899327258683    1.40975359012849
N           1.63804011483354    0.00984463405891   -1.90627981304308
H           1.28657558082912   -0.97449461489038   -2.03158550544119
H           2.28151465980918    0.31414984408279   -2.62959683702816
H           0.75812259723269    0.54884335703086   -1.88627837857779
