    23
        -45.37005327  Gyration_radius:  2.3334981473 Dipole_moment: 4.333
 S          -1.35414737195184   -0.04107800768332   -0.94497462397803
O          -1.60687324071639   -1.19598200303461   -1.79488988887955
O          -1.39335275167687   -0.36955723507677    0.47013241710818
O          -0.13929272637650    0.65401711962080   -1.31803242694665
O          -2.56545219704706    0.96404386127158   -1.20876167988562
H          -3.23857774798488    0.42110866702500   -1.60996903933713
O           2.33425823551538    0.01414895429848    1.73263314302527
H           2.36850158049808    0.21805573779823    2.66833241719925
O          -1.46682957515570    2.12076044712042    1.46171907983176
H          -1.49583141255389    1.17081054047763    1.24413304936852
H          -2.00572132724536    2.55271048192855    0.79610654355181
O           0.71856525305103   -1.91295073985128    0.97877236823438
H           0.94381632684904   -1.94854788469090   -0.44957723440656
H           1.37852864006802   -1.25771494488319    1.33200991897995
H          -0.13835792757649   -1.43756783942819    0.98600962429527
O           1.12726944076567    2.06325333530993    0.60254523834408
H           0.33115573944280    2.27684224750290    1.12260612390280
H           1.94787491930344    0.81947883495319    1.29448453733995
H           0.76941938890540    1.65541904835808   -0.20573700979665
N           0.92096519576650   -1.77161545321837   -1.55490211320373
H          -0.10279970231875   -1.80110511388505   -1.81195742767966
H           1.49856325968646   -2.40901152790378   -2.09341887083520
H           1.16831798078387   -0.78551852599955   -1.69726413624009
