    23
        -45.37005382  Gyration_radius:  2.33356341619 Dipole_moment: 4.333
 S          -1.05359905535467   -1.27222868277656    0.04136579055149
O          -1.48215197666697    0.07208743437487   -0.30630276456647
O          -1.12183718057857   -2.19105338719362   -1.08595098011741
O           0.24635771345687   -1.29003348107399    0.68041163307218
O          -2.10533189470641   -1.81899265014569    1.10993926778179
H          -2.66770564401807   -2.40337881602153    0.60901742717333
O           1.78451302860848    2.29139732208365   -0.12987689739827
H           1.57385496780622    3.20719779788230    0.05771395619823
O          -1.70644081320362    1.08188073365507    2.16728156315545
H          -2.03347459357178    0.31322495764711    2.63883751746922
H          -1.71801281493377    0.83386078166615    1.22427555975157
O           1.01741395138196    0.93720424071281    1.99393101571470
H           0.86987350077966    0.05172198243843    1.61740172860012
H           1.56652347182280    1.78821271858732    0.70027885881897
H           0.12175946030483    1.23333921145303    2.23883347913459
O           0.34628236476612    1.07999454298953   -1.96216740962430
H          -0.45959111703969    0.87277187605973   -1.44450987715668
H           0.91597579591946    1.61460106321452   -1.34635821633157
H           0.94269467670061   -0.23799477737939   -1.98625889866218
N           1.22274937608452   -1.30400527399680   -1.79055575669286
H           1.53915185652688   -1.34754287135729   -0.81471468616661
H           1.89644814139661   -1.68765112157311   -2.44544050670283
H           0.30454678453300   -1.82461363126213   -1.76715177398865
