    23
        -45.37005408  Gyration_radius:  2.33362693442 Dipole_moment: 4.325
 S          -1.10383695494200   -0.75737216209602   -0.96941745752803
O          -0.81111187445911    0.66059850476643   -1.09353094481965
O          -0.64921672076702   -1.52582012565443   -2.11939310240541
O          -0.62589079747567   -1.31303720679538    0.28024133114593
O          -2.69408093616364   -0.89108779214016   -0.96061454036081
H          -2.90975066877926   -1.18802465268917   -1.84045529566778
O           1.94645077905752    1.40811191607216    1.63763750220128
H           1.92082550521259    2.32361981269862    1.91951345575323
O          -2.34083581865162    1.57313963287847    0.91045479321985
H          -3.08887354495974    0.97653801458127    0.84245899048755
H          -1.78879198411676    1.38987521371724    0.12788630934061
O          -0.36313635177417    0.37575616107537    2.36827907575487
H          -0.45361617779738   -0.36379954990466    1.74178153005776
H           1.10780375862671    0.99650937770305    1.97962118102414
H          -1.07162405337493    0.98950356814053    2.10135764392646
O           1.83486376559071    0.94050847854310   -0.94344994071662
H           0.87302772089602    1.04458959677730   -1.09940729041893
H           1.96720632095226    1.18103584124358    0.01268279001503
H           1.91357841303259   -0.50348854265090   -0.98757212775484
N           1.69266978303241   -1.60095027942300   -0.98326735270281
H           0.89888671438623   -1.72015565665324   -1.66878523150093
H           1.25007241310094   -1.80503817439038   -0.07934151534604
H           2.49538071936630   -2.19101196580898   -1.17667978369980
