    23
        -45.37005406  Gyration_radius:  2.33350265916 Dipole_moment: 4.336
 S          -1.09799428063375    0.64355125568186   -1.05309030876370
O           0.33376679006450    0.72461965338673   -1.28798380579703
O          -1.77468575897945   -0.22032157665337   -2.00993876772881
O          -1.41442573813052    0.29227804860871    0.31628591899483
O          -1.68025085048857    2.10806475692948   -1.30468344361520
H          -2.08048868014553    2.05708832278588   -2.16836370635140
O           2.00358226895321   -1.12905050278107    1.77832394350984
H           2.88939427596395   -0.80287207774137    1.94309019309256
O           0.88990939344173    2.81041016172857    0.30245145490773
H           0.10096282666165    3.34078548483171    0.17383551519110
H           0.82515405950057    2.08497815107697   -0.34582671487823
O           1.36474451365386   -1.66395846024486   -0.71145328116696
H           1.69146314206068   -1.53324609824236    0.21899814091591
H           0.00377535101591   -2.13562366863911   -0.57530237223198
H           1.18000043056227   -0.76067789733814   -1.04355992288771
O           0.40239626274585    0.91583516917249    2.21110075792718
H          -0.36899164823849    0.67676808334653    1.66752943891197
H           1.39177815270291   -0.38096229672118    2.01476938805273
H           0.76978915134297    1.69540284162444    1.75582200422332
N          -1.10856453180969   -2.22246777471459   -0.48394891437734
H          -1.49125705129035   -1.64033149977159   -1.27719379058674
H          -1.37516145457447   -1.68394736679713    0.34866693956582
H          -1.45489664438825   -3.17632270953235   -0.46952867692454
