    23
        -45.37023080  Gyration_radius:  2.33353061531 Dipole_moment: 4.376
 S          -0.52818260574507   -1.22279789953914   -0.99900633407159
O           0.40587903679043   -2.00809201740292   -1.78845979272171
O          -0.35509308137465   -1.37263465125463    0.42999080128821
O          -0.51749395911682    0.17189908084820   -1.42114486442071
O          -1.98425527509147   -1.79059982396180   -1.31085417937101
H          -1.97026896511904   -2.01085206583470   -2.23834542772996
O           0.97134430045317    2.06302123792317    1.77422125334581
H           0.73720988736883    2.21811379834314    2.69045364903624
O          -2.61726770219074   -0.31799085460197    1.40098121134534
H          -3.28603488539460   -0.68433117720931    0.81972545583741
H          -1.79155655781968   -0.78601491659943    1.17563934759666
O           1.97786449179352   -0.28519726309597    1.16670864913635
H           1.68535067592326    0.61383711597311    1.47547042803675
H           1.15553202854665   -0.81236923151734    1.11796433975371
H           2.21144293172293   -0.12947081029295   -0.26194139367297
O          -1.31737708190229    1.90893478953365    0.47935970652024
H          -1.90055106729416    1.30878016843848    0.97873122356705
H           0.11348389489909    2.07929816977649    1.27064512268395
H          -1.06803615086942    1.39444730005067   -0.30907135923532
N           2.10428533203142   -0.07639941622370   -1.37089676905702
H           2.95168268802835    0.19096641404582   -1.86107061702225
H           1.30831079326629    0.55518226126974   -1.55197904895618
H           1.71373127108382   -1.00773018862603   -1.66712141185359
