    23
        -45.37005393  Gyration_radius:  2.33350261872 Dipole_moment: 4.333
 S          -0.27714546306032    1.42035615050771    0.79703162402687
O           0.63330319664790    2.54168879057140    0.61360700617448
O          -0.98623254571179    1.07069065090838   -0.42227142509340
O           0.37945496441081    0.27923441504070    1.40129897897275
O          -1.38170909202038    1.92441709681589    1.83282909137913
H          -1.30172470275418    2.87427831056785    1.81885682877615
O           0.44556479358983   -2.45870789532912   -1.48454572139299
H          -0.18961870976708   -2.95552838240116   -2.00219425291947
O          -2.84177807208390   -0.54936944144738    0.63640200335213
H          -3.00428516392978   -0.10404148280413    1.47031643880827
H          -2.26492896397106    0.05042927371318    0.12821984776957
O          -0.65003318477334   -2.16206801874944    0.89125864873433
H          -1.57123323009967   -1.86749934732394    0.77078427133975
H           0.06727052294677   -2.41120495506881   -0.56560834704185
H          -0.19599386482461   -1.36428857827422    1.21539164259250
O           0.80613440782038    0.06374259158488   -2.11735344836123
H           0.69570624270148   -0.91581838767905   -1.98376126833952
H           0.02455565415233    0.46756720682394   -1.68556092106838
H           1.82006089310017    0.46551767793789   -1.16654510741757
N           2.37879151833751    0.82020042645520   -0.26373591800865
H           1.89595274059105    1.71582585930315    0.01841517626286
H           3.37942207432754    0.91830599607887   -0.40177500032599
H           2.13846600437017    0.17627207276402    0.49893985177874
