    23
        -45.36528545  Gyration_radius:  2.38286114992 Dipole_moment: 3.488
 S          -0.16269898788000    0.40424520051693    1.03670960753177
O           1.14777267303337    0.16671846813949    0.38721957635453
O          -0.83367820704383    1.53387304702438    0.42181566684773
O          -0.96296207233368   -0.80753983886650    1.03015888823281
O           0.14807685677792    0.74077841575281    2.52028866017631
H           0.65470029041212    1.59666148018212    2.44320623781465
O          -0.53657877274007   -0.69059730360166   -2.87452859860068
H          -0.26515074251198    0.10615080870117   -3.33362226275951
O          -0.11805786290643   -3.14303340861820    0.27587035127767
H           0.34197750401797   -3.54510603280709    1.01500385122898
H          -0.54951639105567   -2.32429815061691    0.63085416795497
O          -2.36340263918915    0.11419892027504   -1.19531690067362
H          -2.53412330354187   -0.59277986580802   -0.56492411021663
H          -1.89008029044774    0.78924086453853   -0.66321171104685
H          -1.30050549125102   -0.42376495303397   -2.28705825116690
O           1.20743785504654   -1.62648394858397   -1.28476303387938
H           1.24852784568696   -0.81603681874977   -0.55451355354618
H           0.73813463779746   -2.37054150997050   -0.76628878916109
H           0.53383711982367   -1.29854168351616   -1.99419347028018
N           1.31967130557672    2.89736529199659    1.65150321999941
H           2.14863774590082    2.56353301923426    1.17661885699112
H           1.47446350794319    3.85324387480226    1.94567831506844
H           0.55351742888064    2.87271412299893    0.98349329184782
