    23
        -45.37334954  Gyration_radius:  2.36856228947 Dipole_moment: 2.548
 S          -0.27520003198129   -0.55332019455364   -2.10715223005435
O          -1.02004637960139   -1.18578460626426   -1.04439493546802
O          -0.97690641108116    0.46238956733049   -2.84287296042483
O           1.03252262570019   -0.07499858536537   -1.60281346471567
O           0.08573551959659   -1.70519968038022   -3.15187195175604
H           0.13133094570839   -1.24035260560870   -3.98252846593600
O          -1.64807049049123    0.56492972475188    1.67115141446897
H          -2.58049323534100    0.40576833348142    1.51737567372655
O           0.95214086187690    1.75425650362312    1.91304626180257
H           0.64285475512285    2.15737541056455    1.08938388767146
H           0.14606076589720    1.49423968690866    2.37507929860540
O          -0.48128419642355    1.77318640240614   -0.49285857760773
H           0.15260502405031    1.15953002036790   -0.91757772558060
H          -1.10140496723884    1.95634987154943   -1.20647462723686
H          -1.29948215404704    0.93052574100828    0.83058569747431
O          -0.47129298709619   -1.89372726153418    1.42554226795719
H          -0.74072094482591   -1.88529576316596    0.48101054581239
H           0.92130648556058   -1.24987225645868    1.19274052945440
H          -0.96183986104668   -1.13509042074530    1.79313113184553
N           1.71742303409376   -0.60485415556990    0.86342834423389
H           1.54280786171259   -0.45122851019351   -0.17383482499005
H           2.63580279481417   -1.00021132429864    1.02716300102844
H           1.59615099504907    0.32138410212922    1.34274172966977
