    23
        -45.37334969  Gyration_radius:  2.36816935878 Dipole_moment: 2.547
 S          -0.63176771239908   -1.56727649132284    1.40090840242336
O          -1.12873774306266   -0.21443280399902    1.48538196948036
O          -1.51345765054307   -2.51932131127591    0.78316032271971
O           0.71883145523579   -1.58048322172410    0.79346766400237
O          -0.40971835711242   -2.05977714435221    2.90314613398243
H          -0.54205305428822   -3.00180723516552    2.84652785373358
O          -1.33669049393016    1.54618983677574   -1.28227966462190
H          -2.27078299469180    1.65791497220014   -1.10016308313277
O           1.19183143538084    0.74995436856893   -2.37886473005643
H           0.71314002020046   -0.09098725803672   -2.39573924087250
H           0.50100077010802    1.42340904092624   -2.36876241280589
O          -0.66121918139725   -1.10693615204494   -1.39997433682887
H          -0.08473612512166   -1.33933194270217   -0.64342727707808
H          -1.41267288576848   -1.69625054532351   -1.27622140832141
H          -1.17158074030967    0.58073971207121   -1.23624246285902
O          -0.09110353369192    2.16410853435905    1.07525841580948
H          -0.53196751418667    1.37896225592367    1.46752699632535
H           1.19546874782107    1.41300483779697    0.63866637945192
H          -0.54574774254874    2.25663589467133    0.21738926198568
N           1.87832880381901    0.69196860313352    0.22440018362816
H           1.79649270858632    0.73950442494559   -0.82136188768204
H           1.50518384070985   -0.25558248400019    0.52954669513718
H           2.83195795719346    0.82979411853117    0.53765620555425
