    23
        -45.36528556  Gyration_radius:  2.38293766811 Dipole_moment: 3.484
 S          -0.25430183712943   -0.07904341060649   -1.09313144713579
O           1.15090911681027    0.15155143254006   -1.37006329541494
O          -0.41187061262225   -1.14884265701753   -0.08022124973464
O          -0.95918608990256    1.12182167093140   -0.68092205854570
O          -0.94919300475669   -0.60045550274748   -2.38007108533224
H          -0.38740171047019   -1.38873465331264   -2.62111234046280
O           1.30121364053341    0.96119344678253    2.53122680546665
H           2.10411313262780    0.43805732178943    2.56175470297518
O          -2.52924910135727    1.29375195173701    1.37895141474902
H          -3.39488216466536    0.97240756907875    1.12001284219997
H          -1.99527125318066    1.35181302393908    0.54596420200386
O           1.42796694500976    2.21833296925737    0.24912949325094
H           1.50335330589354    1.48651876083633   -0.40020873970584
H           0.56548259112274    2.60147985617134    0.06037448198003
H           1.36833441815483    1.52180828757073    1.70591468755921
O          -0.81977129904551   -0.39854820989612    2.21886257426505
H           0.02956382729028    0.14617960647521    2.43419324550064
H          -1.56332239696576    0.28237468012609    2.05611927820792
H          -0.63929755455169   -0.79848324976064    1.21930396689914
N           0.88962408632745   -2.44138482315010   -2.47274428503518
H           1.40584725511049   -2.96951638817057   -3.16468729063051
H           0.68804309377389   -3.04419652017184   -1.68528790040238
H           1.46929559200003   -1.67808518234860   -2.13335796267399
