    23
        -45.37334961  Gyration_radius:  2.36858846143 Dipole_moment: 2.549
 S          -1.56675327894727   -1.50343306452978    0.32828262912684
O          -0.35121857649849   -1.47904902925141    1.10683859042079
O          -2.72687504126382   -0.94154260266991    0.96366799520919
O          -1.32828099606188   -0.92304425798234   -1.01328840210540
O          -1.89634318324570   -3.04144363588030    0.05575872731799
H          -2.84631977080361   -3.05155579357728   -0.01880868886365
O           1.12869722394526    1.42078601039948    1.59284588407567
H           1.04806722473142    1.26622642802912    2.53513011138191
O           0.82386355086458    2.40570682147750   -1.08510550596343
H           1.33136047040866    2.46002341948091   -0.26635190802080
H          -0.09966878483080    2.36787209613548   -0.79828569726412
O           2.16073699770781   -0.90742058767487    0.59090261495849
H           1.32793573411939   -1.34965485303618    0.86597292675674
H           1.67893250444919   -0.55305511876352   -0.84106275356911
H           2.09248832569559   -0.03670217628360    1.02506240023922
O          -1.31650839587953    1.32428900535973    0.36091049446979
H           0.22731018632423    1.29979839445180    1.22625490808736
H          -1.36557609347901    0.54195552964549   -0.22590654526014
H          -2.04451999879551    1.17024162364143    0.97212815023943
N           1.09641649277760   -0.20726551286338   -1.67735543203198
H           0.11401763441131   -0.57550941243240   -1.50637234250727
H           1.45948291033284   -0.52764225698972   -2.56734995187107
H           1.05275485403354    0.84041897331226   -1.62386818481112
