    23
        -45.37334881  Gyration_radius:  2.36926163421 Dipole_moment: 2.523
 S          -1.19384040069766   -0.74207185611072   -1.68878589546065
O          -0.12475743243525   -1.51740166235759   -1.10539927125830
O          -2.52354059489169   -1.11022706000853   -1.28623387799076
O          -0.93494522495381    0.70485560799388   -1.50822308937871
O          -1.11468346791465   -0.97857331114177   -3.26563598063733
H          -2.02164622601882   -0.89157208931516   -3.54481965567733
O           0.55357445562974   -1.06990750940608    2.09303418932945
H           0.39364546776687   -2.00331255010833    2.23862942437768
O           0.35911555743728    1.78810837600995    2.07782135263652
H           0.73113873406517    1.01098990981151    2.51234482947929
H          -0.55859891201948    1.54635175473033    1.88888236041208
O           2.22286361415182   -0.94709137533336   -0.07282796911338
H           1.49123123614533   -1.31861304594561   -0.61266127160326
H           1.85373927606083    0.54001477072611   -0.32099867967029
H           1.89593853580043   -1.06439584863771    0.83851686608667
O          -1.62759157215996    0.14855166609061    0.97172173864618
H          -0.24138679756309   -0.73331614306726    1.62780175919180
H          -1.41574759873981    0.44814635630888    0.06391902979007
H          -2.36621646258224   -0.45140205527124    0.82386400501711
N           1.31557135143229    1.46673221924989   -0.41910626811129
H           1.01851173179249    1.76631851667371    0.54236088542720
H           0.43473054064410    1.22380615474923   -0.96251173691312
H           1.85289418913788    2.18400917438343   -0.89169273456523
