    23
        -45.37334888  Gyration_radius:  2.36928894766 Dipole_moment: 2.527
 S           1.09607483675192    0.69987759534298    1.77108645751693
O           0.59083788654557    0.11268618797697    2.98170179821915
O           1.67809117815048   -0.22047496230345    0.82309390227418
O           0.09015721013568    1.55638778563671    1.10223603819766
O           2.26267193994217    1.70004578450560    2.20381809711335
H           2.02673491382073    1.93713559461485    3.09625259518183
O          -0.34637458974501   -2.24538450444355   -0.81888462941801
H           0.14264648079818   -2.99061061778185   -0.46726438677805
O          -2.37443296064587   -0.30235616708292   -1.38323225672539
H          -2.44202449662655   -0.35625900016725   -0.41941736233876
H          -1.96738513154130   -1.13689575989674   -1.64585442574775
O           1.54711829830246   -0.51929647519812   -1.78389492848012
H           1.85542471642883   -0.39734230131776   -0.85932047888181
H           0.93997421386464   -1.27864514205267   -1.70780217736019
H           0.53728998010853    0.65940438967885   -1.76290330787201
O          -1.32579639354244   -0.66319402870206    1.19065265407882
H          -1.10548668222752   -0.98454699826016    2.07132742602728
H          -0.88928155935122    0.21306050466736    1.17176874968319
H          -0.59426149851457   -1.69996473524426   -0.04248402333692
N          -0.24471249527849    1.34288914256188   -1.48124007205877
H          -1.15824417511350    0.83058931857444   -1.55530287990728
H          -0.23978107473288    2.19291004789963   -2.03258950437372
H          -0.07924060756806    1.54998435099040   -0.45174728502554
