    23
        -45.37334927  Gyration_radius:  2.36803207589 Dipole_moment: 2.528
 S          -1.45006237395935   -1.45572586082757   -0.77050662232616
O          -0.81361820650207   -1.60911786166712    0.51632949209345
O          -2.79408364637295   -0.94751524349515   -0.74557030947741
O          -0.57718819777169   -0.68497068350201   -1.68534515111967
O          -1.52755690925653   -2.91568451413542   -1.41199456339102
H          -2.30969747128363   -2.87466996818259   -1.95500636645517
O           0.08895495156375    1.09443597328216    2.14819542325242
H          -0.45879659107171    0.79703441210521    2.87612327371186
O           1.16869276612256    2.50281069336729   -0.10479611475944
H           0.23217374576065    2.46681710119407   -0.34600392647743
H           1.17716027380886    2.40075874170751    0.85459625687234
O           1.58209286393495   -1.09522518591381    1.46367274738188
H           1.89378458042468   -0.49557527596279    0.06607102851386
H           1.26722590994494   -0.30124880357519    1.93442147811491
H           0.74380955158160   -1.53168487225969    1.19599930272270
O          -1.36717695883884    1.31526398921990   -0.16342600782476
H          -2.29948334296561    1.10371917657683   -0.04826834364869
H          -0.48938720137127    1.07564954299534    1.35665060973711
H          -1.07548502510427    0.63822157204842   -0.80773418346743
N           1.81207915186131    0.00618949438535   -0.88230039176836
H           1.70506926512507    1.03317500926475   -0.69157294717931
H           0.89741364374406   -0.33570310255216   -1.30266400968438
H           2.59407920065419   -0.18695434396407   -1.49687069474580
