    23
        -45.37890762  Gyration_radius:  2.28820973042 Dipole_moment: 2.636
 S          -1.50754894838501   -0.69247693145654   -0.13759157380571
O          -1.20850856243588   -2.03814475986718    0.28780567400622
O          -1.08693707322491    0.33206157197702    0.80173119902605
O          -0.99689213732124   -0.40575649604399   -1.48122717954398
O          -3.08682984878327   -0.59960244194449   -0.23529207555473
H          -3.32842721538941   -1.51939202856610   -0.26938817463970
O           0.72747217010257   -0.15036602895123    2.73414865524222
H          -0.06547640507061   -0.00978529443915    2.18329292769137
O          -0.71456455731290    2.22223444785987   -1.95745909461119
H          -1.56938025368305    2.65002420183155   -1.89277615150154
H          -0.88547047538142    1.26248294920426   -1.87156423251883
O           1.36727231458387   -2.08352414742892    0.97963338911594
H           0.43424336658466   -2.29780776816968    0.77205985930893
H           1.65403848216303   -1.08951762660747   -0.15696362268212
H           1.30885786025671   -1.53235175179562    1.78726899451632
O           0.94230537768952    1.96497452958777    0.16604752604317
H           0.17672477990007    1.50777339760112    0.56815857752495
H           1.19544480096771    0.68756875624012    2.74080470659183
H           0.54992335425794    2.38891174952142   -0.61933403506013
N           1.58348366829345   -0.33973257972790   -0.93172549752894
H           0.63040192031105   -0.45659086373067   -1.35396354632298
H           2.31773349779292   -0.42846800299581   -1.62559508878900
H           1.56213388402969    0.62748510792519   -0.48807122660431
