    23
        -45.37334935  Gyration_radius:  2.36860571733 Dipole_moment: 2.530
 S           0.13840820105745    0.19924420947560    2.18238765983250
O           1.48953252735279    0.42129572105165    2.61903720669627
O          -0.42986328970261    1.23311030236280    1.35018071607016
O          -0.03182182343122   -1.12529826608649    1.54222373568337
O          -0.76075748896349    0.13581814409541    3.50013995371577
H          -0.14698106728449   -0.15260683626926    4.16958299186532
O           0.67582275700245    1.53541778058539   -1.73508955796362
H           0.91175979522636    2.44179835155715   -1.53265440963607
O           0.74419599543633   -1.26529245302451   -2.34258833001288
H           0.68421231609454   -0.36997320303217   -2.69728869841272
H           1.42765689760787   -1.21228679688198   -1.65952900751950
O           1.89043399013867   -0.21456861250043   -0.01223006944216
H           1.21947511322961   -0.64661162936222    0.55504502328629
H           1.09127945140654    0.99012025502688   -1.03394938969893
H           2.45879163911014    0.21867161144927    0.63320685624612
O          -1.89261313112578    1.25355407917765   -0.83210617971555
H          -1.54713758887085    1.39172853832752    0.07689311362549
H          -1.12870446176900    1.49410460742537   -1.38867270895026
H          -1.75732764146592   -0.29275857029048   -0.81200831582700
N          -1.38164838903586   -1.29368830843950   -0.68973368519205
H          -0.62849537392746   -1.44127908282282   -1.40634823136516
H          -2.10915203919218   -1.99604787861352   -0.75285562606584
H          -0.91706636892868   -1.30445195323177    0.26635694283543
