    23
        -45.37334958  Gyration_radius:  2.36853385985 Dipole_moment: 2.549
 S          -1.71420726343764    1.09202714936532   -0.83111303675798
O          -1.67441755559527   -0.35027105336839   -0.78069462648608
O          -2.49289774831807    1.73148250845173    0.19364053046143
O          -0.34098006868901    1.64042854132759   -0.91346639216543
O          -2.39214846120029    1.47560129596275   -2.22458921579106
H          -2.81294895650792    2.31052894366020   -2.04035253442525
O           0.04791898142340   -1.77638071413334    1.63399063526962
H          -0.75647449915346   -2.22717540968914    1.89498520243388
O           2.32301035462825   -0.03277427640059    1.49880268579269
H           1.99752234505986   -0.90337989591928    1.75754253900696
H           1.63868761682567    0.58296672093238    1.79735885024316
O          -0.29979825966632    0.94091994543322    1.62592205262220
H          -0.18394690503158   -0.82452188299682    1.59073411401242
H          -0.25651416989293    1.28141281246196    0.70888423923847
H          -1.18037021255817    1.21227456637998    1.90576766661909
O           0.21166635524513   -2.15617514554510   -1.07129158089886
H           0.26383604364290   -2.31256670136331   -0.10997608719265
H          -0.60754934990879   -1.62107972821449   -1.15687641073436
H           1.19042831317558   -0.96130100296274   -1.22143729696603
N           1.67777184000720   -0.00757908143054   -1.11574767851615
H           2.36188809414166    0.16601044549702   -1.84264800554369
H           2.10411935982753    0.02795114416350   -0.15692416305949
H           0.89540413597213    0.71160080839786   -1.14251148720299
