    23
        -45.37334946  Gyration_radius:  2.36837912358 Dipole_moment: 2.532
 S           0.28302304734883   -1.75148516269595   -1.29295546626873
O           0.32009775812554   -1.84418020950934    0.14733839947051
O          -0.94402830372908   -2.16845551006195   -1.91413791261254
O           0.70017629366860   -0.39959581054332   -1.73052199309819
O           1.42312186406788   -2.72770049368625   -1.83694726138868
H           1.08560344558010   -3.00788563525893   -2.68300244212437
O          -1.46289487401165    0.29504671184010    1.89665513185593
H          -1.90760211241630   -0.45150138529487    2.30047185934534
O          -0.82000185136003    2.61749485179557    0.34273379856828
H          -1.10907778289470    2.28259914714795    1.20020684658108
H          -1.32282906508472    2.10119738217556   -0.30318065906749
O           1.20441119832099   -0.29443827384526    2.07568903698731
H           0.30252340709792   -0.00863551429242    2.31233516708293
H           1.03766282326790   -1.04851056756492    1.46876289072946
H           1.54544159185465    0.72733602279620    0.95765966129950
O          -1.69506719218451    0.23134564072844   -0.83335366998052
H          -1.53360704633179    0.15405456457254    0.92895183468870
H          -0.81951988270356    0.06784587799032   -1.24003599216605
H          -2.21484258704334   -0.51291678534725   -1.15453324505238
N           1.52192715110460    1.31900284227548    0.05922305364681
H           0.71087144425804    1.98164841659549    0.13485252875195
H           1.30020938503414    0.63353426186246   -0.72248654632435
H           2.39440129796945    1.80419963828162   -0.11372504089098
