    23
        -45.36528528  Gyration_radius:  2.38257989463 Dipole_moment: 3.493
 S          -0.22002190064927   -0.75798530146259   -0.80086616024611
O          -0.68507273559898    0.64880862906817   -0.77918412400137
O           1.20807269360076   -0.81361312597271   -1.04946341019478
O          -0.61458327912388   -1.44505000997669    0.41613166760529
O          -0.97036563060311   -1.44000421163716   -1.97667230769729
H          -0.61789065811502   -0.94690023375098   -2.76901279568423
O           1.39827411426098    1.36365453496749    2.28302951055676
H           2.04321448817778    1.91326219357277    1.83446557278451
O          -2.17941597111953   -0.45815726152330    2.23710450265781
H          -1.61255827242824   -0.96604617842950    1.60218723844845
H          -3.08579538064998   -0.59612192231054    1.95617393562513
O           1.93258423897835   -1.05914309374864    1.47752016605011
H           1.84735860157974   -0.98859953982881    0.50250162174312
H           1.63867450924749    0.41886599265398    2.06059909671732
H           1.20220947201838   -1.63369919445164    1.72812832595961
O          -0.98067553581739    1.64503434325920    1.44202972993175
H          -1.52397047834345    0.90949241379191    1.89648966295973
H          -0.03171282798810    1.59422525755781    1.84357420058388
H          -0.86680395378557    1.26348065589055    0.42541776308717
N           0.34178853985713    0.15080236055844   -3.56550493565304
H          -0.04008429524502    1.06855817875349   -3.37577829070329
H           0.73368381697154    0.14671819340715   -4.49858111649299
H           1.08309044477433   -0.01758268038441   -2.89028986403180
