    23
        -45.37890777  Gyration_radius:  2.28780910463 Dipole_moment: 2.703
 S          -1.52838905007994   -0.65242385648338   -0.06324462264251
O          -1.12303507900004   -0.27222430950846   -1.41997098257098
O          -1.22916526402302   -2.03277533943079    0.22969658178098
O          -1.00736998745317    0.28758149384678    0.91276958611198
O          -3.10721629710169   -0.51996755364618   -0.02103004683833
H          -3.37769538558658   -1.42119593176640   -0.16332330595555
O           0.94313876035161   -0.38015840991953    2.64819325081226
H           0.11216520654415   -0.18204149294043    2.17699361760300
O          -0.82281010351043    2.38060703736895   -1.70795255287265
H          -1.65865375717763    2.81393555960583   -1.53068880475809
H          -1.00623926690465    1.41957346209781   -1.68449849828922
O           1.39181547983890   -2.17827002899619    0.70063975764122
H           0.43999267838109   -2.35883025151919    0.55532095003680
H           1.60906353993351   -1.10304808429829   -0.37586399729241
H           1.41276297570325   -1.69259243337246    1.55092766588480
O           1.00246618993423    1.92937084680476    0.23802078753069
H           0.55636484021561    2.42051052211023   -0.47627298769746
H           0.26225908664650    1.45574910204050    0.66750074077192
H           1.42967011467473    0.44640343963787    2.68343485910823
N           1.49402391366044   -0.29395796149456   -1.08264765259692
H           1.53288139304479    0.63582832840744   -0.56626891058701
H           0.50705382528277   -0.36034910303193   -1.43187410106423
H           2.16691619660055   -0.34172506551288   -1.83986133408764
