    23
        -45.37611114  Gyration_radius:  2.37899971241 Dipole_moment: 2.480
 S          -0.68748623164488   -1.42684837287364   -1.22218908530579
O          -1.23366116160294   -1.96349251480956    0.00320446534616
O          -1.11827732219149   -0.06582399866587   -1.50315139177152
O           0.76667342185225   -1.55116043743959   -1.28704772226112
O          -1.26634785469760   -2.31991665987070   -2.39675030017894
H          -1.16642976517626   -3.18642821642471   -2.01779950246322
O           1.84890120152420    0.06565923496984    2.25540961064107
H           2.21934137311583   -0.75046793792640    2.59480583366834
O          -2.06834540976654    1.39137741814237    0.50041459947646
H          -1.81974658671664    0.79922440836804   -0.24376186058436
H          -3.01938161364387    1.31941071286986    0.59151578204489
O           0.17567483949160    2.25893346725853   -1.12779887978496
H          -0.40185172501980    2.54478176089514   -0.41054836581070
H           1.40446868396251    1.32792635537380   -0.60288397565359
H          -0.30600536275345    1.51494862158692   -1.53860514387461
O          -0.70748008752615   -0.38463428662822    2.08881146152209
H          -1.18674649596055    0.39208582131791    1.75263862483250
H          -0.88536216991541   -1.08189058049400    1.42492407322823
H           0.85770796076750   -0.06287185587555    2.27962897150443
N           2.02471291248891    0.51261371620251   -0.34890093439984
H           1.56280174237624   -0.35670210286490   -0.76640288282051
H           2.04953921609994    0.38630456881117    0.70162403325780
H           2.95730044504046    0.63697085810438   -0.72713741060359
