    23
        -45.37611109  Gyration_radius:  2.37888393754 Dipole_moment: 2.482
 S           0.71943702055155   -1.10289144852662    1.50587596248612
O           0.41851277395288   -2.19721913068258    0.61169998387270
O           1.62192765473790   -0.11594607990151    0.93291896537255
O          -0.48442570623254   -0.47619151997535    2.04633799980919
O           1.48842145696983   -1.73407824768792    2.73983496144661
H           0.96053870446939   -2.51030482752430    2.89241846043356
O          -2.58462694531784    0.23092969252177   -1.33202316872476
H          -3.30030886470304   -0.36004145026068   -1.09312840399546
O           1.88265035675850   -0.03624680820226   -1.70629315162129
H           2.60051502408657   -0.58576517028418   -2.02360410588342
H           1.85571251130808   -0.15838132341920   -0.73129656901046
O          -0.53873106002771   -1.32715231680522   -1.72176891847049
H          -1.82013698504900   -0.36432658281127   -1.57864791926546
H           0.25269878649442   -0.82131554693261   -1.97426368891247
H          -0.28474046865231   -1.76744471351317   -0.88498005917336
O           1.08386367145087    2.28295465697973   -0.15185264559865
H          -0.46166682817229    1.95589209283394    0.24288012816948
H           1.45203449086964    1.57630240879078    0.41319527933085
H           1.30073970424150    2.00303742338884   -1.04870849004484
N          -1.34181499075546    1.51416876352985    0.62277181063645
H          -1.02573164215300    0.71647855323593    1.26065233360095
H          -1.90518631053520    1.08696890272449   -0.16492316935607
H          -1.88968235431556    2.19057265253807    1.14290439491894
