    23
        -45.37611115  Gyration_radius:  2.37888039205 Dipole_moment: 2.485
 S          -1.05349324712005    1.68377139851362   -0.23725678720555
O          -0.14101141836700    1.88642473758757   -1.33910715521167
O          -1.79503469165831    0.43469226337250   -0.31958931883051
O          -0.40247880229712    1.83436915586580    1.06182779453344
O          -2.13316690955983    2.84017373007680   -0.33404712649583
H          -1.57120782347731    3.58382254056662   -0.52294886217331
O           2.78006725263778   -0.61860970082881    0.62571808901858
H           3.42281729878223    0.08866756070686    0.69756305666402
O          -0.84499499733896   -1.49162438945889   -1.87726086196709
H          -1.23533671724123   -0.72779067780929   -1.39717100335233
H          -1.19635140449627   -1.45392630433348   -2.76783426455510
O          -1.38054331180583   -1.89697392606575    0.94928389446237
H          -0.15177329235325   -1.11839195993159    1.68091806624379
H          -1.79367268046582   -1.07758677333139    0.61426569323132
H          -1.09941557749899   -2.36086830199016    0.15213361889792
O           1.54236851701810   -0.16497961002658   -1.61623227434769
H           1.04450227564017    0.67629782773552   -1.56185579200198
H           2.36597684820500   -0.50990470251523   -0.27784955399658
H           0.85910277929808   -0.83517161586232   -1.78957193896194
N           0.53542753758950   -0.38864147941143    2.01156191954051
H           1.47382018222464   -0.53261264825829    1.54349333571716
H           0.62124735949267   -0.40503948400845    3.02181449719487
H           0.15315083276203    0.55390235941998    1.68214495362079
