    23
        -45.37611116  Gyration_radius:  2.37906958233 Dipole_moment: 2.480
 S          -1.22826244651287    1.56582148330975    0.20493383487880
O          -0.22392600240679    2.00074319491340    1.14839039450400
O          -0.70366358679385    1.32013702470195   -1.12974860850454
O          -1.99798991246378    0.42490646478343    0.69494801793956
O          -2.25167618528977    2.76714791983453    0.05828000100658
H          -2.34810780964605    3.02178834316644    0.96947740917873
O           0.96415341039434   -2.10742143449045    1.77189743496298
H           0.73447582128240   -2.09242717529288    2.70223961709875
O           1.90653540244338    0.92890455960950   -1.40471943382613
H           0.96452114269720    1.18702595274490   -1.29443588883933
H           2.38578255499256    1.73965273778155   -1.58084170983989
O          -0.06243536876087   -1.00001186974864   -2.32307415978879
H          -0.58627278924550   -1.69172422757506   -0.94509760507670
H          -0.46652865360183   -0.13296236247237   -2.12482591540994
H           0.88570850759350   -0.82526702795488   -2.31030326405566
O           1.82412631254532    0.29429625541054    1.26353643426274
H           1.09856968729367    0.94237253733463    1.37355843858871
H           1.38653662265927   -1.21995727148321    1.58920189727355
H           2.09063669667609    0.39102298342347    0.33313976538438
N          -0.99871900752012   -1.86756841808481    0.01040082074924
H          -1.46836883819746   -0.95379210251792    0.30668688116360
H          -0.22933616861522   -2.07092697083536    0.70823469113951
H          -1.67575939959828   -2.62176060664072   -0.02187906283338
