    23
        -45.37611117  Gyration_radius:  2.37897140904 Dipole_moment: 2.483
 S           1.67336577177800   -0.32120155390615    1.04818870281035
O           1.73434442783654   -0.60339534656713   -0.37782319891038
O           1.53892013310311    1.08487174515100    1.35290363683591
O           0.65795893088387   -1.13575739047757    1.71128180982530
O           3.07062902082339   -0.77460458476194    1.64351373877082
H           3.04593572295461   -0.33941977238714    2.48878049528596
O          -2.71974511428567    0.82000776708787    0.66162790593817
H          -2.93967272756872    1.06788567672395    1.56089079825366
O           0.82733354540486    1.23406232667125   -2.06357033873465
H           1.51130288269273    1.83818952718230   -2.35540744537537
H           1.25857042249624    0.61894071834169   -1.42961207059089
O          -0.56200745495568    2.16438071541501    0.11215923915013
H          -0.24970189704599    1.98645038225432   -0.79161601159731
H          -1.94902108358839    1.40371310259531    0.40687843063809
H           0.17557738213246    1.86731485158984    0.68340566267123
O          -0.18398057100716   -1.48906732906243   -2.03771873523184
H          -1.12053959426932   -1.53152483549171   -0.70608277013474
H          -0.25660463377073   -0.65287266461172   -2.51227526720110
H           0.64957323882994   -1.40542716615306   -1.53522243086719
N          -1.47871957193510   -1.48885018563889    0.28579787987203
H          -1.99845731014393   -2.32791626391701    0.51833250046302
H          -2.06817488426580   -0.62060697883760    0.42380400506484
H          -0.61688664612320   -1.39517274126873    0.91176347309075
