    23
        -45.37611113  Gyration_radius:  2.37901756645 Dipole_moment: 2.474
 S           0.73886749337884   -1.18833624481276   -1.42975349149307
O           1.59964864578750   -0.10901264427528   -0.97027677804484
O           0.52268947361914   -2.21604404841554   -0.43730249712797
O          -0.51159411754379   -0.67524854796991   -1.98406393732694
O           1.50947560546748   -1.88192627051438   -2.62860329242436
H           1.02425732748272   -2.69716201870125   -2.69513255169720
O          -2.55629425606896    0.20536510382396    1.38994473029062
H          -3.24285803662936   -0.44297496325137    1.22618332667564
O           1.92933646325309    0.21357081682981    1.64285044935295
H           2.68479846879076   -0.26769249061369    1.98286155365609
H           1.88278794314145    0.00619341831568    0.68313681325001
O           0.95550537531943    2.34188569462654   -0.07790672254512
H          -0.57935274438806    1.89962957434246   -0.39379556980426
H           1.21262127446795    2.15424175720824    0.83224607772833
H           1.34717106801167    1.60887019576797   -0.59136893576845
O          -0.41448684835756   -1.19897404568180    1.84464909284230
H          -1.75242391274033   -0.32329985545703    1.66149416619227
H          -0.15976294579834   -1.69584308266645    1.04043233863610
H           0.35398701890020   -0.63143256289259    2.02724647915422
N          -1.44305488607641    1.37964903778946   -0.70642484655607
H          -2.04240560472126    1.97785474438945   -1.26424810049528
H          -1.95956999879001    0.99231506621011    0.13231514980426
H          -1.09934279653802    0.54837131594062   -1.28448345434396
