    23
        -45.37611114  Gyration_radius:  2.37891448454 Dipole_moment: 2.480
 S           0.00479262222834    1.87187893108158    0.70550707217016
O           1.29177360891042    1.32289097545768    0.30648409010091
O          -0.89314619586971    2.10125236096974   -0.40307166420615
O          -0.60934637386320    1.07731376156788    1.76646088172498
O           0.31199353684569    3.29503118953569    1.33204382238850
H          -0.55955760365726    3.67553103357377    1.32822336129048
O          -2.02809307794190   -2.06900812301815   -0.33605780282881
H          -2.94569033440163   -1.87488068655754   -0.13877951283434
O           1.47642135348824    0.14614216245684   -2.06438076756620
H           1.74301394327531    0.75130303882214   -2.75770701463616
H           1.41259463024764    0.68279917841176   -1.24326738463398
O           2.18654129284711   -1.20863504790534    0.40505538907880
H           2.17989272303275   -1.32168536291226   -0.55249486836687
H           2.10125151051297   -0.24363876270875    0.53088058913852
H           0.74284088993794   -1.54308018659361    1.07989599313803
O          -1.24777789867825   -0.10817612261718   -1.85629215339555
H          -0.31679320712183   -0.20795569446254   -2.11957815219132
H          -1.74661145039176   -1.37457015539106   -0.99798111355822
H          -1.26678152543958    0.73402076954457   -1.35737260328850
N          -0.22067837263482   -1.47295971641304    1.50507408579806
H          -0.39733146142476   -0.43262434143158    1.67713644912720
H          -0.26993485624500   -1.99132932478625    2.37519057904676
H          -0.94937374367594   -1.80961985660837    0.81503074451728
