    23
        -45.37611107  Gyration_radius:  2.37899274804 Dipole_moment: 2.483
 S          -1.84523248483016   -0.44382869729538   -0.63228364333010
O          -2.01913427915825    0.98801599183287   -0.54685665869190
O          -0.74688270930698   -0.84475469940845   -1.49812031672373
O          -1.74719350311084   -1.07362109813583    0.68222578969754
O          -3.16240442020212   -1.01378329541551   -1.30476340280614
H          -3.82373767645399   -0.51789821694352   -0.83476005415886
O           1.11519159181428    1.20801457705558    2.40735995064379
H           0.53136384556595    1.55520874075359    3.08340894134116
O           1.12333181201054    0.94636780847592   -2.07552917999046
H           0.36425030844446    0.33668029023129   -1.93992835605051
H           0.93405971076830    1.43221579499653   -2.87934240197907
O           1.74662747825963   -1.61615994918936   -0.85957110672994
H           0.84038975169105   -1.59751464159395   -1.22381061182893
H           2.15794182006706   -0.81894080416518   -1.21312884336669
H           1.25815355133734   -1.43071046811229    0.68248585554633
O           0.23012803419627    2.22346054979062    0.18278632193212
H           0.84487368273110    1.66829944178421    1.56183694629899
H           0.75950968899810    1.93252121857989   -0.57954544689784
H          -0.66814981780056    1.88214421369458   -0.00500123499171
N           0.68733822742452   -1.26225347853478    1.55426321732311
H          -0.33450086101935   -1.22952965995035    1.24127476267210
H           0.92430151590638   -0.31759394047984    1.96872585782909
H           0.82977472266726   -2.00633968798139    2.22827362426009
