    23
        -45.37475215  Gyration_radius:  2.3878844968 Dipole_moment: 5.885
 S          -1.42394722089535    0.84548576830864    0.88059006884546
O          -1.26111198120369    1.86209510305474    1.87994734273315
O          -1.01476890384691    1.21567590025932   -0.46487188681718
O          -0.83218942021813   -0.44524235454591    1.25552175377189
O          -2.99268761011607    0.56905046646523    0.78665500241299
H          -3.31659163952225    0.98126993111480    1.58116926293347
O           2.48255486445618   -1.49078013881926   -0.54211245926438
H           3.13331280276855   -2.09253090477712   -0.17814167986604
O           1.03963460124354    2.59408441691308    0.64971954173208
H           0.41705285913649    2.70340623491052    1.38256941655335
H           0.47311016133734    2.28573309202900   -0.07169907515511
O           1.83040985925768    0.13187677395182    1.38662659035443
H           1.79474915781394    1.08062325209719    1.14223628619115
H           0.90360147964817   -0.11214997882036    1.54835787028197
H           2.33261484061286   -0.79770624915954    0.16411296186746
O          -1.14713093158445   -0.29710273641309   -2.58250411717466
H          -0.49753936310809   -1.42900708134966   -1.60410913548524
H          -1.23574481106195    0.34255091458205   -1.83423207419443
H          -0.59024649104747    0.13919518083663   -3.23043614357718
N          -0.11996818125784   -1.93405045346544   -0.76045594169901
H           0.93617768392193   -1.87772094089821   -0.75349082343459
H          -0.44887799768738   -2.89227689952555   -0.72274210231515
H          -0.46241375865944   -1.38247928671441    0.08728934131760
