    23
        -45.37475225  Gyration_radius:  2.38789576309 Dipole_moment: 5.893
 S           0.69511661987903   -0.12268939022514   -1.73717962678824
O           1.68445173662274   -1.08034725018621   -2.14091276327030
O          -0.60330840143009   -0.67256506510338   -1.38143953374302
O           1.16212714501464    0.79738672865088   -0.69210947942204
O           0.43082512001366    0.80027540449273   -3.01172508381135
H           1.17670739694115    0.59465243663629   -3.56616058705467
O          -0.22379484078933    0.25785956009235    2.92654220892598
H           0.22558033979708    0.53044253697441    3.72769730465518
O           0.70561574235778   -2.76971718122782   -0.26232959409564
H          -0.06894225709203   -2.26905934767484   -0.55531109705274
H           1.36042160749032   -2.57698575903897   -0.94836688983203
O           1.58114842386458   -0.86900024595789    1.42619971642537
H           1.64229925754377   -0.24427359346324    0.68414577750462
H           0.44486093795680   -0.28211963766479    2.41389476288158
H           1.31341772887779   -1.71618207440262    1.01171129782928
O          -2.68818513051345    0.68824899549162   -0.61208501465107
H          -1.61882876199615    1.45641681776606    0.35097237313305
H          -1.96872377318868    0.17125543528065   -1.05033309997955
H          -3.27996399212765    0.03598115563132   -0.23182594773974
N          -0.72713475721976    1.77359072754761    0.81308457346548
H          -0.60169822896895    1.26737753860979    1.73321868321937
H          -0.70612957742023    2.78060303907271    0.92836820094558
H           0.06413767423711    1.44884916889343    0.17394381840217
