    23
        -45.37475205  Gyration_radius:  2.38731617433 Dipole_moment: 5.900
 S           0.51909781111635   -1.24303140851828   -1.30124709621927
O           1.71779376398185   -1.13703169980389   -2.08270116946020
O           0.71425320364591   -1.47816023332160    0.12044161905750
O          -0.41639228770896   -0.13033067632348   -1.50982436163139
O          -0.24657575847335   -2.53362655357577   -1.84353903442256
H           0.19355105008275   -2.69505864145630   -2.67188349127692
O          -0.71239487147671    2.51147124707155    1.36134797558376
H          -0.98974238436410    3.42066855420293    1.24088864153949
O           2.86789511523999    0.16812501261200   -0.00561482047477
H           2.25659243813921   -0.45189911306296    0.41664130079391
H           2.92164440437355   -0.16445395392306   -0.91284868491608
O           0.98230461787020    2.00629207626445   -0.55006088550348
H           0.49880125003698    1.34871814428416   -1.07766432365491
H           0.02741224411445    2.36676087573518    0.70334498770357
H           1.80114124805410    1.54400601685630   -0.27264579842754
O          -1.17175458630652   -1.76439405992520    1.89578691911872
H          -1.81403212583551   -0.45000374456734    1.17318677238354
H          -0.45001142265457   -1.81892357565088    1.22273942021111
H          -0.72942287607264   -1.66734584580135    2.74145552208467
N          -1.98795611733784    0.35046649372805    0.51129312851966
H          -1.40937084723682    0.13897194824103   -0.36099744127241
H          -1.60154140866695    1.24475152790853    0.92273167418303
H          -2.97129245055191    0.43402759907137    0.27916915609471
