    23
        -45.37475214  Gyration_radius:  2.38752155352 Dipole_moment: 5.892
 S          -0.74892645877201   -1.49035081111365    0.85348697056819
O          -0.21482323150644   -1.55522980435930   -0.49754221719157
O          -0.06301170463273   -2.28674988839776    1.83023650049397
O          -0.93250516161748   -0.09172957885873    1.26178827108350
O          -2.22465087561605   -2.08926106431915    0.75579249189713
H          -2.27530257480097   -2.62693784125628    1.53954541959815
O           1.30736209617759    2.59255523604000   -0.49524949053145
H           1.54253242989136    3.43940666967681   -0.11361119090594
O           2.26642395584018   -1.66097569770200    0.59551472524629
H           1.61742855059190   -1.68350274742877   -0.12197060460670
H           1.80179603428639   -2.09993927880100    1.32214514810878
O           1.63236508619230    0.82802105457482    1.39168301142165
H           2.10419672952344    0.01075541147337    1.12595982695856
H           1.55402350944262    1.90975262237100    0.19346065833781
H           0.71883165073470    0.53907480534663    1.55469624372171
O          -1.15485469101619   -0.30076524198504   -2.57924526858459
H          -0.88144204876736   -0.90509801782563   -1.84649797541411
H          -1.19553508718978    0.98240267471824   -1.57256694397633
H          -0.45887760209852   -0.36068858260361   -3.23671270086670
N          -1.13581285415777    1.59195481011599   -0.71575201434477
H          -1.12602862995650    0.92425630888088    0.11751171070046
H          -1.92249673911370    2.22876009088096   -0.65712326550585
H          -0.21069239337833    2.10428887056332   -0.70554928622461
