    23
        -45.37475210  Gyration_radius:  2.38747119879 Dipole_moment: 5.891
 S          -0.63589526052659   -0.21273568680830    1.74971769369337
O          -0.06888969216514   -1.11859684309853    2.70714733001288
O           0.21214438426758    0.90295520488937    1.36118952394312
O          -1.17544793339136   -0.88109655887993    0.55853210065961
O          -1.90232586130688    0.44517808153430    2.46339898904372
H          -2.03863619102166   -0.13533547429696    3.20521201328418
O           0.87145902421211   -0.54713806440251   -2.75944918719959
H           0.84249066232467   -1.17458992039235   -3.48303829003959
O           2.32740993814182   -0.79142018528173    1.48436061710821
H           1.88699411393884    0.06349048304835    1.37614723528225
H           1.79405793333566   -1.22549738342296    2.16519328800492
O           1.05787282105938   -1.95818876512920   -0.57898622954658
H           1.06863012923379   -1.08921725430682   -1.94178804774508
H           1.72660393353681   -1.64623131123208    0.06651617845096
H           0.20423513533247   -1.77817502010842   -0.15066435698625
O          -0.41648531655493    2.79296467039975   -0.31900717952994
H          -0.94333677952627    1.55770948412809   -1.24519567706354
H          -0.21892814959049    2.18394328471461    0.43394642709175
H           0.41649813961795    3.21809819444286   -0.53264163859925
N          -1.20991769482171    0.59749947444356   -1.58607290575667
H          -1.27563290619128   -0.01416932939579   -0.71325495839488
H          -0.42944288635181    0.19921486682673   -2.17823569049777
H          -2.09345754355072    0.61133805233758   -2.08302724519543
