    23
        -45.37662518  Gyration_radius:  2.35458638686 Dipole_moment: 4.510
 S          -1.66326345152258   -0.91890743615433   -0.02637650226989
O          -0.95136435696543   -0.53189111046861    1.18511705033174
O          -2.93585815549693   -0.28282937498322   -0.20611205204311
O          -0.76936515336613   -0.82301782497563   -1.18619471405070
O          -1.96704943517072   -2.47622155707069    0.13048966062214
H          -2.91834887881100   -2.49505489594308    0.15249212307277
O           2.18288524968664    1.75348065311910   -0.42859372347561
H           2.06427640496465    2.29419197860776   -1.21150645054486
O          -1.60024061406255    1.73805159855481   -1.44645634204690
H          -2.45463526345029    1.48016229381483   -1.07741173533726
H          -1.19508097918057    0.88509409421473   -1.66557594061661
O           1.33291573345028   -1.51325491737787    1.98374327819650
H           1.77511250225841   -1.18292131228971    0.44209794874609
H           1.62906335209399   -0.91377506888490    2.67208086309757
H           0.39750042901301   -1.26051972770046    1.79600375345426
O          -0.10682983015248    2.00198933905488    0.78708590144301
H           1.37382231028967    1.92449261851189    0.13544694720810
H          -0.67192028598937    2.17761318184813    0.00752872001355
H          -0.41009616517862    1.13299478880827    1.10590094459406
N           1.75789003300515   -0.84818630996140   -0.55626658463356
H           0.73984916573252   -0.89723874560565   -0.86769908905949
H           2.34775711427228   -1.41840934379622   -1.15172551038769
H           2.04298029458323    0.17415707870580   -0.57406853631989
