    23
        -45.37475206  Gyration_radius:  2.3877477803 Dipole_moment: 5.901
 S          -0.81351575591439    0.71197814435906    1.53171556437412
O          -1.03459532933615    2.11310963928153    1.74843578195151
O          -1.58318839784886    0.11395136188366    0.45258599857525
O           0.60536954796791    0.35548631902862    1.40374973496708
O          -1.30535358966858   -0.02128267424748    2.86076051257252
H          -1.36583432978561    0.70043004061452    3.47832242546974
O           1.91356798439238   -0.54305057198690   -2.17199384517685
H           2.82468894802494   -0.45870024968576   -2.45645842761786
O          -1.22651206706709    2.41943309962263   -0.93552576822179
H          -1.21304675443207    2.80736485904075   -0.04886682925881
H          -1.58450480727509    1.53428234407268   -0.77923735899836
O           1.34798101187827    1.64586411303398   -0.88142962357533
H           1.22455705470819    1.31699708246808    0.02486645346982
H           1.66814838844174    0.34850990159097   -1.78900595391940
H           0.48839361708726    2.05734427323083   -1.11154763494708
O          -1.51808816277441   -2.38768758329010   -0.27283731043421
H          -1.93883703905508   -2.40443176798529   -1.13477040809016
H           0.09882040900219   -2.19618320639929   -0.17422480698186
H          -1.67774633081065   -1.47967331768033    0.08367415294494
N           1.05599078640097   -1.79282048788052    0.00030694851333
H           0.90550716314527   -0.94957675673972    0.63778415929915
H           1.45795322765647   -1.42149559776796   -0.90490960324519
H           1.67024442529439   -2.46984898459497    0.43860583831125
