    23
        -45.37475212  Gyration_radius:  2.38796297086 Dipole_moment: 5.896
 S           0.46902072145740    0.53232377490362   -1.73556178812259
O           0.51060873065103    1.89842261283433   -2.17271441578354
O           1.46469304327776    0.15926474184784   -0.74354932354106
O          -0.86569322166854    0.09462740420401   -1.30678550321983
O           0.79978359044883   -0.35094345326924   -3.02258074459314
H           0.68246365465275    0.27454820676633   -3.73042967277857
O          -1.46023349341906   -0.35019999609703    2.53483061793708
H          -2.31459884954159   -0.28985266900061    2.96437797702777
O           1.12673253954381    2.61368299733328    0.36570257248331
H           0.92525710485222    2.86470471389536   -0.54706975279237
H           1.53666974185905    1.74302671676879    0.26546983707552
O          -1.33289100958465    1.65641671581734    0.88048539343701
H          -1.33272587166403    1.20585290861064    0.01932021561348
H          -1.36976660888295    0.48929487598295    1.99776349660494
H          -0.49084798025611    2.15828545147382    0.89440231011983
O           1.76945938746757   -2.20286632449680    0.31373252492211
H           1.77681892713217   -1.34986842680593   -0.18553837063549
H           2.32840026829668   -2.05861623418516    1.07988146071467
H           0.14783203717583   -2.14689289034043    0.48362342195863
N          -0.85997184805193   -1.84552509841623    0.43183657473247
H          -1.13898455369525   -1.37325016534926    1.33603156277182
H          -1.46951900470704   -2.62378318488582    0.20695758663614
H          -0.90250729542697   -1.09865267756074   -0.33018597059699
