    23
        -45.36220084  Gyration_radius:  2.33754627493 Dipole_moment: 5.453
 S           0.98061030043213   -1.51564851984682   -0.33919645646941
O          -0.33015612041064   -1.96047123657955    0.13793479054051
O           1.17452629088864   -1.74543613182781   -1.74436145715746
O           1.27205269879655   -0.16650627752629    0.11858351114804
O           2.04265016748069   -2.43733599214400    0.41198055240595
H           2.11735146398603   -3.17631004282571   -0.18322932783525
O          -2.23812382201914    1.07044616367748   -0.62722706955247
H          -3.09198261683588    0.92321086892568   -1.03808736298685
O           1.43589313691219    1.94018783608102   -1.54992969299030
H           1.54199049408090    1.17599704660515   -0.95108564553160
H           1.04064433243737    2.63919679001930   -1.02594742464157
O          -1.75854210504983   -0.37996584944879    1.39610150063721
H          -1.20607521616849   -1.12166709464261    0.90227070711510
H          -1.00061835371993    0.12636398621845    1.96056061162999
H          -2.02143722488064    0.24848533629956    0.62523497837703
O          -0.51417710967675    0.23027592570104   -2.37417023330838
H          -1.56198253747337    0.74399573983585   -1.29401147057117
H           0.16027252973454    0.93615584974111   -2.37885722288142
H          -0.00142266551694   -0.58804057097222   -2.24516342114587
N           0.23895544053320    0.69293204647730    2.51057421142594
H           0.28789458329191    1.69346868084195    2.64960433043980
H           0.82589861552982    0.43771623121336    1.70535114556419
H           0.60577772764795    0.23294923417713    3.33307045578813
