    23
        -45.37475211  Gyration_radius:  2.38773948653 Dipole_moment: 5.903
 S          -0.24296083728506   -1.65261084261000   -0.85015742579253
O           0.78054854937508   -2.33730779387467   -1.58678779889300
O          -0.01975315418408   -1.54290858527539    0.58255021073374
O          -0.59252883912404   -0.34184174035801   -1.41285257728285
O          -1.56296006920424   -2.53511345427742   -1.00787191520643
H          -1.33693059960892   -3.10618160416262   -1.73498908736604
O           0.64795491393324    2.82542681389038    0.51946709882487
H           0.79537325185320    3.68459904155165    0.12169860983259
O           2.61517895823921   -1.18298574658674    0.03675622444036
H           1.84518501756189   -1.30380020602144    0.60996877576554
H           2.40782370603433   -1.74240963770032   -0.72540153365342
O           1.71197149834551    1.08242531517964   -1.09538575343120
H           1.16604587311173    2.17763401596129   -0.04055569651983
H           2.26081470561202    0.39314636091064   -0.66541315070071
H           0.92925533891201    0.60388807377165   -1.41638515347506
O          -1.62010163137264   -0.41157709243704    2.29996671321708
H          -1.09011805479046   -0.29764572471797    3.09140437719847
H          -1.67815612320647    0.78764456683761    1.19524205984519
H          -1.08082492915421   -0.98067723504429    1.69812274338169
N          -1.54661316552605    1.35545602691920    0.31805152897658
H          -1.22513408132115    0.66537890614198   -0.43071720134987
H          -0.75704715485820    2.04594826730448    0.45395319249812
H          -2.40702320328837    1.81351227456136    0.03933576892237
