    23
        -45.38307846  Gyration_radius:  2.27831789 Dipole_moment: 1.769
 S           0.45493303404667   -1.78375337731506    0.37480394083808
O          -0.75414355699086   -2.23134867628322   -0.27995974122891
O           1.36715233549716   -1.13552580441611   -0.57483092507380
O           0.22388002378715   -0.96299950388680    1.54553342279430
O           1.19970777566180   -3.08269105380606    0.88572772493208
H           1.03474318891688   -3.69725302364858    0.17832855872011
O          -1.55088615685235    0.93882447739135    1.31549107971681
H          -2.01887365203238    1.01677613824341    2.14814977463890
O           0.37368196963321    2.48056548997485    0.04507099912251
H          -0.37969522414323    2.18590073216409    0.58374277808560
H           1.16419140100213    2.05579401508754    0.45326559799716
O           2.23072906699679    0.82988654210795    1.04180495027148
H           1.78450165799737    0.45616237909202    1.80969117122432
H           2.14799313785821    0.12656936353209    0.37279105661995
H          -0.89930337342215    0.20431115664247    1.43592596583473
O          -2.28001615370730   -0.21994121174569   -1.08567904299035
H          -0.97859580170701    0.41262229128119   -1.73605124777437
H          -1.88526958939273   -1.08436378690453   -0.83987932329667
H          -2.33127703851526    0.27278339942121   -0.24973619247467
N           0.02955963711368    0.73559164700069   -1.86948366874626
H           0.18962241834158    1.57211401046171   -1.21656908558482
H           0.24378615215879    0.95330707703018   -2.83568591575637
H           0.63357871774462   -0.04333228142081   -1.50245188788174
