    23
        -45.38307799  Gyration_radius:  2.2780997866 Dipole_moment: 1.777
 S          -1.04287144451976   -0.65910771967309    1.41659429322244
O          -0.26551458809224   -1.87830263773236    1.42176219341943
O          -0.22044017004640    0.49859314747636    1.78778838957902
O          -1.77434559086166   -0.42973002807885    0.18783903404125
O          -2.13052965015703   -0.80977911629199    2.55558365168809
H          -1.63915049399888   -1.24741126376359    3.24284570535246
O          -0.46573672455579   -0.79379218481517   -2.04286091139850
H          -1.06808388345226   -1.16597251685121   -2.68862370356825
O           0.66283973230115    1.71732195414021   -1.70414154476175
H          -0.06015188715120    2.10685202305240   -1.15867386482207
H           0.28422480395808    0.90835576410431   -2.08737574631365
O          -1.28110381443947    2.25763671270202    0.05520513620952
H          -0.99048092721943   -0.68289947063462   -1.21168208962942
H          -1.97266989344769    1.64062946612750   -0.20860267398037
H          -0.87937790303205    1.82207553684625    0.82831797396137
O           1.53269281201509   -1.95163601937910   -0.52356622579716
H           1.97207708842816   -0.49550900855541   -0.07191742596606
H           0.92174395092553   -2.13072303292207    0.22349979408833
H           0.94954674266644   -1.74902977146200   -1.27384707428526
N           1.92308847146070    0.52125225938275    0.24763087861867
H           1.55999956287452    1.10203068152335   -0.57862412082740
H           2.81071855300873    0.86192639046853    0.59829244311351
H           1.17352525332118    0.55721881431709    0.98455587805241
