    23
        -45.38307799  Gyration_radius:  2.27816930859 Dipole_moment: 1.769
 S          -0.32254234161467   -1.84662241853561    0.11944382429736
O          -1.50723470302923   -1.07154075277841   -0.26805541045343
O           0.54959864782719   -2.07298936392085   -1.01142488012814
O           0.34149472224225   -1.27630726265219    1.27314979180729
O          -0.85407057609943   -3.26587048470687    0.57352330325369
H          -0.99378836780636   -3.70235929336491   -0.26032153864002
O           1.94810480578615    0.73416078047575    0.82891628687025
H           2.68992133655349    0.66648233750642    1.43174360385559
O          -0.27561443524090    2.38885436046192    0.71409413591545
H          -0.86854091652516    1.84136460973013    1.28035171850550
H           0.61676295601724    2.03391719870654    0.86308918104028
O           1.71439549825025    0.14982218501082   -1.86294032889939
H           1.41967294151824   -0.76905325545559   -1.68322976249395
H           0.27854329828738    0.82403822295429   -1.83923269023617
H           2.08240863594233    0.45886606131191   -1.01848890171598
O          -1.66925351535280    0.45716007225299    1.93613686723507
H          -0.97845202494447   -0.04258289769419    2.38516667951441
H           1.37097033230556   -0.04702774671375    1.01636907003852
H          -1.85703310432440   -0.08336209419934    1.14782485160671
N          -0.70054995166117    1.10610317043676   -1.52265036237160
H          -1.14320986740873    0.23261777485841   -1.13879267194762
H          -1.25114769485613    1.50767254272080   -2.27262820528032
H          -0.59043568593504    1.77665625361248   -0.69204457175501
