    23
        -45.36220099  Gyration_radius:  2.33748228169 Dipole_moment: 5.459
 S           0.32537164434071   -0.88459852730376    1.57538299114061
O           1.16212595587679    0.31661901717887    1.58748841626216
O          -0.77985642881210   -0.80895912742150    2.49062671120861
O          -0.01642944956860   -1.26902979602253    0.21513924431179
O           1.26153687793331   -2.06104191870148    2.10596973860909
H           1.11905789780277   -2.01691700386894    3.04601557519144
O          -0.72019960853747    2.30719634601599   -0.84248710243359
H          -0.85951307684096    3.22441638402771   -0.59988904846026
O          -2.52446295052619   -1.13796637135119   -0.75341555244183
H          -1.64581193506005   -1.34673609424622   -0.38155698326856
H          -2.37377678511307   -0.85796891878325   -1.65817986033062
O          -2.04788645358185    0.95022962669525    0.92576764240417
H          -1.60533579927464    0.42983448898741    1.62038840889508
H          -1.22636408705685    1.77156757777145   -0.16056463123362
H          -2.51621956929596    0.28241627406367    0.38936817912357
O           1.65391758479790    1.46796007921819   -0.54673351392305
H           1.52394240440414    1.02560520850910    0.39454628189145
H           1.75592446822829    0.61202078664382   -1.18520894198473
H           0.72384521615949    1.86588295327460   -0.73316826549232
N           1.73992097365446   -0.71351469308230   -1.81746247474403
H           1.09340737706896   -1.13576524430775   -1.13785941255842
H           2.61246579673450   -1.22398322938840   -1.78972109655204
H           1.34433993666599   -0.79726781790871   -2.74444631561480
