    23
        -45.38307841  Gyration_radius:  2.2783594881 Dipole_moment: 1.778
 S           0.57730440594466    0.77279395169085   -1.61233740275623
O          -0.36116490792321   -0.33962669911555   -1.80104807696496
O          -0.11731341698503    1.99522557209959   -1.27415747737325
O           1.64480910065784    0.42706127831906   -0.69651535437159
O           1.26149452990842    1.01723638622631   -3.01779229789628
H           0.61120927944533    1.54922180631146   -3.46426105936319
O           1.10269731445041    0.60237011843333    1.85216108896674
H           1.88806682553679    0.91111658846593    2.30639886528607
O          -0.16657373661386   -1.85766738509866    1.67869969668165
H           0.33738047004903   -2.20394599704585    0.90531906809494
H           0.34133043581079   -1.08943063361040    1.98925365175390
O          -1.22422711508518    1.90909060076530    1.13222363602169
H          -0.44554124658760    1.63432468072661    1.64434826371018
H          -0.86790541280143    2.14867953170823    0.24955837724946
H          -1.83511306370060    0.50335076245434    0.72209222148754
O           1.11725341542346   -2.25804052915910   -0.63596041727399
H           0.51387817690282   -1.74918296686005   -1.20673679167230
H           1.88114057439215   -1.67672366332337   -0.55156311291792
H           1.34035487026101    0.56116801982850    0.89280233148144
N          -1.92445449380195   -0.48121514826046    0.32091479487996
H          -2.88870160805705   -0.78121860135192    0.23672192159289
H          -1.34508378399225   -1.13666118265464    0.94266490127712
H          -1.44084064324234   -0.45792651053354   -0.61278681790361
