    23
        -45.38307842  Gyration_radius:  2.27826268602 Dipole_moment: 1.766
 S          -0.33167971739015   -0.97743955390671   -1.56989945190180
O          -1.08836425424602    0.13349762445295   -2.10294036174420
O           1.08127735351348   -0.62319629390509   -1.39036017019519
O          -0.89862504259038   -1.55689263965025   -0.36973040383576
O          -0.36483298695346   -2.11581746723127   -2.66802398298964
H          -0.29550215615685   -1.61633527581360   -3.47488120284602
O          -1.67178794879388    0.10932703696688    1.48667318768509
H          -2.45988945011666   -0.24531796540159    1.90080927206600
O           0.97415598429244    0.33114950003778    2.28817791834229
H           0.00339520646265    0.28541242055598    2.27587444111722
H           1.27763689557604   -0.54863226016396    1.96268524909131
O          -1.32955031455664    2.12610591293746   -0.37243303215857
H          -1.38349056516539    1.50054913416584   -1.12690917049094
H          -1.66972688293553    1.62429567913325    0.38688901900786
H           0.23577853815750    2.01651371392284   -0.13831708425092
O           1.48356754006603   -1.91818225524598    0.92941955837848
H           1.56940294966864   -1.51707391604939    0.04580216400075
H          -1.41713918561001   -0.53865230084519    0.78399377956113
H           0.61804433334682   -2.34028487019803    0.89543658695584
N           1.20765556405972    1.60521086314667    0.01884196615560
H           1.23049636279766    1.20235296676223    1.01341737401107
H           1.94643105189453    2.28004770405833   -0.14140809562313
H           1.28274675471909    0.78336224215427   -0.63311756035354
