    23
        -45.38252905  Gyration_radius:  2.27578853696 Dipole_moment: 2.962
 S          -1.77184649324389   -0.49572705340049    0.50861208546181
O          -0.73624649687387   -0.83526885918820    1.45907959558135
O          -1.61502746014277    0.84707374028243   -0.04250818657425
O          -1.93138028613115   -1.48443130488997   -0.54943756164865
O          -3.13267192350569   -0.48990957826979    1.31940986652209
H          -3.79272864888854   -0.40999678232150    0.63761359351930
O           2.08084259134594    1.37365819399432    0.35831881364930
H           2.78443203899189    1.98163844550402    0.58815094756701
O           0.37664716692362    1.19047373713934   -1.80398589954782
H           1.08922026279168    1.39531922035072   -1.17210293117002
H          -0.44394040263276    1.21822520893592   -1.27053016110801
O           1.72629668822139   -1.36034034366887    0.53543622003315
H           0.88992892897237   -1.30904366962087    1.04022605877755
H           1.05891275042721   -1.56264980486260   -0.89573750279387
H           2.06183956699408   -0.44630501709055    0.51686231273044
O          -0.02543713428112    1.71313067513466    1.88596610285554
H          -0.69669549772018    1.70576211433391    1.17750007518254
H          -0.12330823316223    0.82728131517726    2.26398037700369
H           1.32706796781032    1.56765044521258    0.98295166172706
N           0.39789927249697   -1.42426005834754   -1.72046762972254
H          -0.58070323485037   -1.57852747144965   -1.34463671691455
H           0.60714832536362   -2.03437832667822   -2.50220940523966
H           0.44975025108588   -0.38937482628462   -1.97249170586928
