    23
        -45.38252924  Gyration_radius:  2.27572161103 Dipole_moment: 2.963
 S          -0.41906148253249   -0.25148277372830   -1.84525206675101
O          -0.41074144419972   -1.45385609827258   -1.04176527730052
O          -1.08555577694941    0.86639366875776   -1.18369408524549
O           0.90228337087780    0.13161249149642   -2.32460366408894
O          -1.27923246123816   -0.58514903910998   -3.13274446922878
H          -1.14328203462855    0.17559780028455   -3.68921487709612
O          -0.66388258253523   -0.07101824438015    2.42841733920406
H          -1.05995842586521   -0.11073968288269    3.29958868926520
O           0.23435679729769    2.00832916633465    0.85111145532575
H          -0.32825454114034    1.78311615803411    0.08203112541154
H          -0.08291997067538    1.42941355634986    1.56736567886526
O           1.22734627503326   -1.56473696328323    1.07942753691166
H           0.65870757506492   -1.75050120680395    0.30548379555997
H           2.01558869746396   -0.34211066041704    0.43291016684671
H           0.63332301783506   -1.14981646541833    1.73023121879510
O          -2.40533639806407   -0.63599359788201    0.54842308996055
H          -2.18685859375228    0.10175162853075   -0.05185043656448
H          -1.96856427807837   -1.38322061699006    0.11441694136715
H          -1.38778952682140   -0.29821360298087    1.78019916350317
N           2.19572978528964    0.56240857445436   -0.10163852773590
H           1.56312781910503    1.29916839195919    0.33869194942953
H           1.81786963401887    0.40857160472973   -1.07957897147651
H           3.17310454450090    0.83047590120303   -0.10795578494016
