    23
        -45.38252848  Gyration_radius:  2.27545898542 Dipole_moment: 2.963
 S          -1.81227140552714    0.14953361341993   -0.57975694547534
O          -2.31446528887210   -0.87930798558760    0.32113880799551
O          -1.28331857170613    1.28970265263448    0.16287908301891
O          -0.88384743573547   -0.35726894724815   -1.56623094768553
O          -3.06528786462202    0.68582273838498   -1.38658730319689
H          -3.69458387394445    0.89249730961020   -0.70242415132871
O           2.41408231653748    0.69987215855784   -0.15048605575664
H           3.28021351708860    1.08410952255996   -0.29027303476432
O           0.63424639195638    0.75512455856257    1.95790994641566
H          -0.11308536519832    1.10683823095687    1.43192506378393
H           1.40440038628952    0.81569422488863    1.36454589007814
O           1.25446679799924   -1.74083229506762   -0.72330143179018
H           1.85053747179939   -0.98583204105552   -0.57097646264197
H           0.48969902150644   -1.92258686180931    0.66148162655176
H           0.49851597520789   -1.36580273214402   -1.21789922211004
O           0.58485855085062    1.87862750523724   -1.61669558250250
H           0.23296289787619    1.12023477821631   -2.10580905449772
H          -0.08517263451549    1.99448744981192   -0.91720749552531
H           1.78556989978643    1.20112090261412   -0.74185019343825
N          -0.13635596792514   -1.70185475920477    1.49541243895908
H          -0.16052596984117   -2.44810264610223    2.18075263792393
H          -1.09636585398329   -1.49380565011612    1.09796383989321
H           0.21572700497330   -0.77827173712015    1.89548856609332
