    23
        -45.38252853  Gyration_radius:  2.2756207519 Dipole_moment: 2.961
 S          -1.77800481414232   -0.69442555611600   -0.00452635944006
O          -1.63999112796083    0.71290438320331   -0.36764874955571
O          -1.56903215282035   -1.55927219816591   -1.15803916188240
O          -0.97180228274156   -1.06049560677421    1.13901340510870
O          -3.28654275344445   -0.89476634906021    0.43519986746053
H          -3.77006593475554   -0.76059666923598   -0.37420787207183
O           1.77204380593793    1.48208311886980    1.00276608324713
H           2.33095104552456    2.10889179222783    1.46332496432772
O           0.67044494726868    1.42327054038222   -1.52745862213078
H          -0.25269622940760    1.32020129005468   -1.21779184531657
H           1.18296527586528    1.60796133308528   -0.71999142534149
O           1.68320390954145   -1.27231466946455    0.81886955152835
H           1.40669019381375   -1.35494162988583   -0.74700988142843
H           1.91195570710436   -0.33832624232399    0.97343623794817
H           0.74945412356866   -1.35016200614176    1.09961744931459
O          -0.66541728839658    1.46419067461446    1.97485792806933
H          -1.14180107234060    1.49767723698947    1.12406534375637
H          -0.75546082793211    0.53098404711575    2.21742332568806
H           0.87324037310053    1.53874090965114    1.43261030716224
N           0.95315157316330   -1.17244558561950   -1.69419834988111
H           0.95259809104582   -0.11423413007659   -1.82443006583163
H          -0.06491146250544   -1.44874306131743   -1.59303642964926
H           1.40902691051385   -1.66618162201347   -2.45284572108058
