    23
        -45.38252921  Gyration_radius:  2.27571388576 Dipole_moment: 2.966
 S          -1.59065505043537   -1.02062927411576    0.26803153256518
O          -0.80717300385799   -0.76965845667730    1.45741732677880
O          -1.72198983745947    0.15878795137659   -0.58234312638959
O          -1.12821964876644   -2.17206178403369   -0.49535900200319
O          -3.05144382104723   -1.37607843686857    0.76699194617224
H          -3.48889238997375   -1.66581952494186   -0.02771204573059
O           1.35246784849145    2.09124943868977    0.37605019494638
H           1.73467362267753    2.94829733601618    0.56789903729818
O           0.46415715740287    0.89650446548256   -1.94756963878487
H           0.87031211453784    1.46340360706595   -1.26741924739322
H          -0.43669835239659    0.71173809973533   -1.61141225646227
O           1.84948358572733   -0.49601770239162    1.20582962534819
H           0.93509202218442   -0.67036444566852    1.50627206161929
H           1.70452645335011   -1.18868980836683   -0.22024211620615
H           1.86869746472473    0.45753985651071    1.00871643765902
O          -1.08946675907026    1.88997747557605    1.31532870866944
H          -1.00135946514516    1.11242753241524    1.88546773286546
H           0.43390766100885    2.09977278078857    0.76596849466392
H          -1.50120061041168    1.50880206910506    0.51691316564790
N           1.28951016559058   -1.45933823982245   -1.16406932059604
H           1.07828603724953   -0.54441490748639   -1.66925499739402
H           0.34673468163884   -1.89706021768227   -0.95825234600196
H           1.88925012396441   -2.07836778473115   -1.69725217727428
