    23
        -45.38252912  Gyration_radius:  2.27564982684 Dipole_moment: 2.960
 S          -0.60998043185651    1.70952895546311   -0.59062850284181
O           0.64516625288766    1.24176038572626   -1.17149403772844
O          -1.62047631355363    0.67662789065726   -0.53310799415333
O          -0.38507352775659    2.36898136316541    0.68884556649286
O          -1.16862638787547    2.82063074248501   -1.57167193645918
H          -0.54155435279819    3.53106972397457   -1.47765343745713
O           0.45560127650404   -2.43738689558106   -0.44042139095871
H           0.60954928548485   -3.32862689476381   -0.75563961570206
O           2.12981947590090   -0.39062333091186    0.35134391249126
H           1.72362235794936   -1.23630368522719    0.08941647107127
H           1.77296476852321    0.26378617867139   -0.28354113255552
O          -0.41602821334474   -0.87149996030479   -2.35712640575738
H          -1.25285776793211   -0.56720487235555   -1.97683877932318
H           0.17332012930328   -0.11421648144990   -2.17950736113855
H           0.12817559438696   -1.91455924177265   -1.22485624259560
O          -1.35469417182744   -1.27301399656692    1.28968237128838
H          -0.79217444727363   -1.87121612044061    0.76589099509720
H          -0.32268733124253   -0.32114755157387    2.03988809809463
H          -1.67391577174352   -0.60615763951594    0.64916828835383
N           0.44465721814204    0.40374461341704    2.18848847777914
H           0.66800264193824    0.54914123487762    3.16631007080994
H           0.10719382423421    1.29226353067243    1.71989690597009
H           1.27999589193190    0.07442202134032    1.61355570922958
