    23
        -45.38252856  Gyration_radius:  2.27550605911 Dipole_moment: 2.962
 S          -0.39817140169583   -1.55785994721041   -1.02839792373527
O          -1.52553894550346   -0.95736153746768   -1.72893176385313
O           0.85099381862819   -0.87752006185733   -1.35708186870653
O          -0.61082763581965   -1.68317554052241    0.39669742769426
O          -0.26180224695661   -3.03396778702427   -1.58637590561139
H          -0.24763066814192   -2.91088388312673   -2.53054771989897
O           1.38538741716067    1.18401348614437    1.73765581636455
H           2.00917931362655    1.51649979228162    2.38393378595227
O           0.91737209483754    1.76637098191354   -0.91894189949301
H           1.02921749763023    0.84504963151417   -1.23107766624061
H           1.20167587197074    1.74798627597846    0.01259130464233
O           1.96046303278852   -1.27120339709344    1.01280658955783
H           1.13060937628677   -1.72090862306143    1.23010245009955
H           1.87332432560668   -1.14383124312040    0.04950938157435
H           1.67451860482837    0.25364363372885    1.52092131375064
O          -1.29185105966955    0.50711182585045    1.78865895111469
H          -1.16087242884958   -0.39937936932100    1.44547508774251
H          -0.39302693089519    0.83790528890017    1.96544655046311
H          -1.68746859843132    1.17023900506523    0.39621519321458
N          -1.65961227134777    1.40923674760150   -0.64220944492805
H          -1.74768782836107    0.48917625963066   -1.16041062135675
H          -0.67157271449604    1.75756161388403   -0.84059595170387
H          -2.37667861319521    2.07129682731328   -0.91544308664230
