    23
        -45.38252912  Gyration_radius:  2.27582372584 Dipole_moment: 2.959
 S           1.47670495917162   -0.89586438077511    0.81366029778479
O           1.80791752785358    0.07909137222393   -0.22150588276209
O           0.46236064585460   -0.41963199692881    1.72766318352298
O           1.16697930732140   -2.19568451289452    0.23320964876144
O           2.79072321730382   -1.09576962236292    1.67528881374828
H           3.38230387989739   -1.53539986223785    1.07228870740547
O          -1.36200892954410    2.08489428309597   -0.37850168737427
H          -1.76046406087742    2.95204580402958   -0.46018889486295
O          -0.01961863028348    0.44722482958606   -2.14833870312822
H          -0.55124067090184    1.13475036685649   -1.70835627530736
H           0.78462217158104    0.36376424781944   -1.59618385497647
O           0.81742327407709    2.15691642718620    1.08109953556033
H           0.59436387854816    1.52217118198238    1.77713153011983
H           1.38076206618746    1.62073372417097    0.49131413574876
H          -0.54820895688109    2.20193263721243    0.18709937853441
O          -2.07234578326668   -0.27857786120950    0.86169111144153
H          -1.24672342510252   -0.35950683835920    1.38002390081209
H          -2.03093876853959    0.61001033116338    0.46519919202093
H          -1.63937576279668   -1.25527965080828   -0.31864346557025
N          -1.03746839962313   -1.70933995707753   -1.07215290670412
H          -1.52096660598050   -2.44417218981769   -1.57554128129045
H          -0.16892324750685   -2.06672144959618   -0.58147765531752
H          -0.70587766647832   -0.91758689326909   -1.70477881816894
