    23
        -45.38252886  Gyration_radius:  2.27553830687 Dipole_moment: 2.965
 S           0.33199347495096    1.76316732682395    0.65079340147631
O           1.06051199237512    0.68867137240753    1.31867846222292
O           1.02961221766519    2.20739944278514   -0.54852032386361
O          -1.05769771926292    1.43774833424671    0.41696070768191
O           0.33634703713919    2.99263782512434    1.64943307846698
H           1.25199058595463    3.25322022072953    1.67183883085530
O          -0.97658076767191   -2.30102842586261    0.30470684327906
H          -1.36323779812054   -3.13690051384594    0.56777990486011
O           1.61458714384926   -1.47411873934402   -0.16490990600191
H           1.58790309967845   -0.73537548287005    0.47725014367251
H           0.79066643040014   -1.96906217749808   -0.00691793994455
O          -1.10477836938301   -0.52670915125711    2.23366797064491
H          -0.18344627699389   -0.21066525539110    2.17841088275078
H          -1.58688467554004    0.18589836138886    1.78888440610967
H          -1.06817414740141   -1.69006336816802    1.08846460982144
O          -1.65538738951480   -0.33177632415301   -1.50888442635196
H          -1.56914381205181   -1.14277897057522   -0.97648970379462
H          -1.64500829401050    0.39688068446055   -0.85646683201447
H          -0.19084701450590   -0.08026490253272   -2.08057403468758
N           0.85644012928173    0.11735828477141   -2.09823430367214
H           1.24171294689674    0.12702928222370   -3.03559882509134
H           1.30795390981143   -0.61501650619593   -1.46847099552077
H           0.99146729645331    1.04374868272975   -1.60180196089798
