    23
        -45.38252923  Gyration_radius:  2.27569200685 Dipole_moment: 2.963
 S          -1.58228659210806    0.90273401805230    0.57044869767764
O          -1.41749555884908    0.78534911692897   -0.86150975341792
O          -1.25791300234435   -0.33123520849721    1.28012751543843
O          -0.87485982365231    2.04093817912330    1.14169571761011
O          -3.12411776035383    1.16795597934261    0.81836081002874
H          -3.16378476078816    1.37478705191275    1.74710445973651
O           1.12580864693044   -1.94945315280163   -1.12927826888503
H           1.41702911712845   -2.75949567309192   -1.54930444108140
O           1.34126749390214   -0.96777858556927    1.44091435975642
H           1.41790020416461   -1.45973135682382    0.60364683862710
H           0.37887246134963   -0.83703698359873    1.56511710202078
O          -1.48193523504719   -1.89229150477435   -0.84410052021789
H          -1.50117436751135   -1.59229863362776    0.08425232980750
H          -1.69957648488394   -1.07873644346587   -1.32188838207072
H           0.13192553674486   -2.00962317689594   -1.06179015561184
O           1.07040617279739    0.71308836422154   -1.86147257099028
H           1.22090344319283   -0.24563057910389   -1.77938624982210
H           0.11281272685300    0.83013333162842   -1.69968324751344
H           1.56130052995296    1.30749858232019   -0.46855594459879
N           1.61102777947973    1.48829823742188    0.58077774006640
H           2.35943832992953    2.12129649427398    0.83833808104481
H           1.69503021308417    0.53143407583723    1.04373208702782
H           0.65942092004020    1.85979788719757    0.86245379537294
