    23
        -45.38252917  Gyration_radius:  2.27571873693 Dipole_moment: 2.967
 S          -1.22530343722191   -0.55932106129683   -1.35278601647217
O          -1.03079441339915   -1.49494394269922   -0.26731826777008
O          -1.36437495413595    0.81937777744788   -0.89301913076444
O          -0.21454491651355   -0.66733420034122   -2.39639081327001
O          -2.60494495643607   -0.94571409007835   -2.02844159422854
H          -2.62429762753889   -0.40248698815493   -2.81033299856835
O           0.48019479521253    0.68528449789382    2.37555085701755
H           0.51049579655754    0.96190026589158    3.29202817626914
O           0.86769176608859    2.01429496062663   -0.01124437149879
H          -0.00318344693621    1.77262715905348   -0.38788709671579
H           0.82332846957745    1.72682764798117    0.91849391083836
O           1.34485510103055   -1.53467032964480    0.97731217197920
H           1.16660262259990   -0.83500254571342    1.63085401755511
H           0.47189187399326   -1.73901194479514    0.58611846530616
H           1.92793628888013   -0.75545535297358   -0.28259374362657
O          -1.97459668053758    0.17721684873283    1.60003595684494
H          -1.94482776430552    0.66739147832433    0.75683804126025
H          -1.88508283448296   -0.73958734044413    1.30171886665133
H          -0.48010463678981    0.51261152791426    2.16590585553341
N           1.97751741904114   -0.08484482683282   -1.10969047172894
H           1.71654753397221    0.87638736681465   -0.72902946491718
H           1.18751536810153   -0.35890448408262   -1.76052817778508
H           2.87747864325948   -0.09664243361900   -1.57559416191917
