    23
        -45.38252916  Gyration_radius:  2.27568718168 Dipole_moment: 2.969
 S           1.74727539627188   -0.00374546435252    0.76817143376432
O           1.67553592111241    0.29196065718149   -0.65960003672222
O           0.73455483904834    0.68740368720433    1.53514157860387
O           1.77276790818898   -1.44049224973527    1.00834337742723
O           3.14145229547965    0.55547057401441    1.27058472288025
H           3.77224962190506   -0.02012691830142    0.84922626911272
O          -1.94097403900397    1.23477357603393   -1.02565953535448
H          -2.58200254229594    1.82205553919405   -1.42757963385563
O          -0.36461263576413   -0.80698301746228   -2.00770098011553
H           0.48028010364763   -0.41983784785502   -1.69956696611406
H          -1.02647250487565   -0.10864600123318   -1.85580579655966
O           0.25825799686203    2.50752841610620   -0.37024246255750
H          -1.14418173066699    1.79497989458340   -0.80852108431582
H           0.30297916547487    2.31500207223909    0.57774272371124
H           0.89204366955932    1.86249240577761   -0.73666880708398
O          -1.80454628857678   -0.15860443182302    1.35515785401310
H          -2.06368148470110    0.35952964283037    0.57223659001637
H          -1.22616675182074   -1.51481936744574    0.75418461552614
H          -0.94362078158075    0.21667779727256    1.62871796708439
N          -0.59649486457922   -2.17914814029816    0.20798462139465
H          -0.89248855563900   -3.14641778967126    0.27079732694684
H           0.38306375438292   -2.03622562221619    0.58615624005506
H          -0.57521850243046   -1.81282741204588   -0.79310000787036
