    23
        -45.38252915  Gyration_radius:  2.27564090651 Dipole_moment: 2.960
 S          -0.55522373835846   -0.20407978533595    1.81472300851132
O          -1.09153134351382   -1.17704005062588    0.86746735599581
O           0.85613950172910    0.04600190382948    1.62272391008136
O          -1.35929462969785    1.01058472655552    1.83456117440385
O          -0.69760157506406   -0.85525297473906    3.25166339846922
H          -1.63957634681941   -0.87837700162702    3.38910890685392
O           1.31071322133270   -0.80284178284122   -1.99500520845863
H           1.82526873723763   -1.23870564825807   -2.67518498591419
O          -1.39030924611054   -0.34140829776766   -1.66231740945318
H          -1.44396165112194   -0.77065899489146   -0.78391677640797
H          -0.49758350869518   -0.55536856507411   -1.98796940248627
O           1.26053129878278   -2.20238800204888    0.22413871767067
H           1.34461429121940   -1.39646731314013   -1.19354830232946
H           1.62482250426498   -1.56141442573589    0.85176847121169
H           0.30258773406025   -2.13152074181462    0.39653303091683
O           1.62033925130389    1.49774323457956   -0.49908873497557
H           1.53154195300161    1.05312377473526    0.36769229502739
H           1.67485500291086    0.77179830882022   -1.14612314018794
H           0.11297477092289    1.99925693958671   -0.59851378571377
N          -0.95185698059272    1.98558872010846   -0.54944730518044
H          -1.26610448657829    1.15731454645724   -1.14274998282989
H          -1.37270013037633    2.86193004650112   -0.83592405475362
H          -1.19864461983742    1.73218140272636    0.44940883955327
