    23
        -45.38252920  Gyration_radius:  2.27573751721 Dipole_moment: 2.963
 S          -1.40676092263049   -1.22170555080362   -0.41530530785528
O          -0.70968777048016   -1.47725966515734    0.82571318876608
O          -1.70780000351695    0.19299047663902   -0.61416290858218
O          -0.73857116301607   -1.78718289784690   -1.57984173032041
O          -2.80207161825339   -1.96270678638688   -0.30004635866598
H          -3.16388979781824   -1.88393908616717   -1.17737576888106
O           0.97604303574156    1.80602840032686    1.45928669781690
H           1.20577993901253    2.50462951247243    2.07292946480957
O           0.36458963132568    1.77773997673366   -1.23168099683668
H           0.65160877631048    1.99355673433207   -0.32618132122664
H          -0.50248374247932    1.33702701067928   -1.11914893906305
O           1.87072432345670   -0.76905195731720    1.01457679906960
H           0.98960295755705   -1.18535357460119    1.09884216334038
H           1.88371808866917   -0.69868396204035   -0.57600963743128
H           1.73719085872214    0.15411902355573    1.29463559793826
O          -1.42424729307042    0.85634386693112    1.93073826345216
H           0.05806587815610    1.50404255210987    1.70832943529972
H          -1.74363687887233    0.85706108565937    1.00857164531265
H          -1.22522881325021   -0.08046755257406    2.07274495741998
N           1.54658083138049   -0.53114766426100   -1.57322618783974
H           1.20120003050499    0.47719110533297   -1.60473840368798
H           0.68363089527165   -1.13308820922239   -1.69915892794593
H           2.25564275728129   -0.73014282839743   -2.26949169490685
