    23
        -45.38252919  Gyration_radius:  2.2756677552 Dipole_moment: 2.964
 S          -1.66329384954201    0.13491226944650    0.92680548091350
O          -1.73891491682997   -0.41992526694996   -0.40653244285722
O          -0.54291363201321   -0.39587529299630    1.69789494627025
O          -1.67410673611813    1.59155367446364    0.94747636987225
O          -2.97984822256590   -0.33019638322823    1.67482089529869
H          -2.95508584323244    0.16445689779277    2.48817053627197
O           1.81908343287606   -1.39101975644930   -1.04809245583597
H           2.44677173052623   -2.03789889124352   -1.37205280523349
O           1.89851793196165    0.46108807007565    0.99587150317737
H           2.08921685866834   -0.20356450475115    0.30969967312106
H           1.09198879617250    0.13220352783744    1.44314701586505
O          -0.20034143805732   -2.53331986616697    0.17730863052610
H           1.09004431715445   -1.90606485278135   -0.60166753585610
H          -0.21515437026024   -1.95527962847912    0.96341084958946
H          -0.94410845366310   -2.18888643735375   -0.33809915303934
O           0.05855196185378    0.37861634630876   -2.23043554446546
H           0.35720628921004    1.61673309551210   -1.27547874641430
H           0.75984182262526   -0.26292195444502   -2.01798864052281
H          -0.72910661104922    0.05579712036937   -1.74857213053253
N           0.49017276653779    2.18244993739421   -0.38179451719856
H           0.75033519766457    3.14594485822826   -0.55822595652049
H           1.21149357014984    1.65450347752159    0.19959815385079
H          -0.42035057206552    2.10669356987494    0.15473584371962
