    23
        -45.38252923  Gyration_radius:  2.27573078766 Dipole_moment: 2.965
 S          -1.11856659959553    1.49388417070282    0.40141627249937
O          -0.99943573868256    1.14460341934675   -1.01114413991321
O          -1.29888432220966    0.33772398584797    1.25124798285608
O          -0.02393513510659    2.35674935475370    0.82514706997282
O          -2.44139038457068    2.35446808792966    0.53819253256437
H          -2.22552227351201    3.16080088152269    0.07988460678770
O           0.28648623790366   -2.37704343349454   -0.78220627832040
H           0.25030805906854   -3.26897986217722   -1.12939272109648
O           1.30119318936946   -0.00673808610264   -1.76566404890983
H           0.45986113013670    0.48778220973785   -1.68644404904323
H           1.06160113432389   -0.93315493497234   -1.58319163279675
O           0.80457826778385   -1.26704602667947    1.69360631342001
H           0.70229119471589   -1.84149401699975    0.91384833681373
H           1.72196902826332   -0.07068799476239    1.18208138707940
H          -0.02817615987110   -0.75581087182015    1.73784589334087
O          -2.08497188353397   -1.25412156279012   -0.75439819683978
H          -1.82430867088043   -0.39817022499034   -1.14392717327134
H          -0.64834999759905   -2.02858037857171   -0.80532093486612
H          -2.16898451822147   -1.02954809960126    0.18367820132745
N           2.04014462943137    0.77649716981453    0.61875595403548
H           1.30774352894854    1.52657356832760    0.77287619740056
H           1.95691966497434    0.49931621485636   -0.40750684184518
H           2.96942961883561    1.09297643011019    0.87061527880430
