    23
        -45.38252920  Gyration_radius:  2.27571920521 Dipole_moment: 2.966
 S           1.74839679314862   -0.74449951875548   -0.18119079666190
O           1.46809020933678    0.39316212783506   -1.02886710258722
O           1.26798910730773   -0.56360518261874    1.18556049009608
O           1.28603335673801   -2.00818139042561   -0.73941607246940
O           3.32620566289441   -0.85027504281660   -0.08924777134912
H           3.46312521481751   -1.68078767067383    0.35615269572801
O          -1.51611578925849    1.90075794193835    0.65691611070789
H          -1.96931770826418    2.68101177553158    0.97815008940362
O          -1.38464764149005   -0.70798090451907    1.54666066465380
H          -0.40786270870545   -0.72881234340967    1.61107791348164
H          -1.60107676844515    0.22610092621339    1.37452501931832
O          -1.05842545796385    0.79772472374329   -1.83397374367147
H          -1.36414503613143    1.31214525408646   -1.06562609210837
H          -0.08609925538374    0.75613572116691   -1.73554935873533
H          -1.34402890886855   -0.71596949281264   -1.43143971414995
O           1.07672290770332    2.06993849746191    1.02307251154952
H          -0.54477360766750    2.04809253193768    0.83209801460014
H           1.21025597081005    1.17755046286160    1.39464669242672
H           1.39643849166611    1.95894413800148    0.11594138136493
N          -1.29018946859399   -1.63684034443417   -0.89731219540400
H          -1.90019408545733   -2.35131513233465   -1.27752939318804
H          -1.50424795768564   -1.40298228712980    0.12077653839477
H          -0.27213333051553   -1.93031479089690   -0.91542588143313
