    23
        -45.37334895  Gyration_radius:  2.36752501203 Dipole_moment: 2.529
 S          -1.45425619746933   -1.62815807198921    0.20956868561570
O          -1.04063828691368   -2.60091187081681    1.18325857538390
O          -1.69867662428918   -0.29918583268122    0.81535728067797
O          -0.60310816182058   -1.50018576751867   -0.94968651755833
O          -2.88085755845759   -2.10155757393254   -0.32847177837932
H          -3.22829152623911   -2.61380829515001    0.39616069310237
O           2.33647438575173   -0.10080161449099   -0.58396375239830
H           2.71148203338406   -0.90826342123903   -0.93835319034580
O           1.48165138170060    2.05077849161019    1.11627740456688
H           2.14790517176611    1.74729698757148    0.48803879862480
H           1.32003437693393    1.28733491954090    1.68882650974804
O           0.32996860301839    0.52641593105649   -2.33619135055904
H          -0.11475693650359   -0.30304289126903   -2.05476578605665
H          -0.36193323494215    1.43470849763675   -1.28505264930681
H           1.21696342001668    0.43598703555416   -1.94085334418583
O           0.78972847872195   -0.61334462593885    1.62106993835694
H          -0.15266452006268   -0.44984566419568    1.41170485070834
H           0.78762724781682   -1.54233224558043    1.87455442252233
H           1.75023100262195   -0.38164451788816    0.14994355638741
N          -0.75594009786890    1.83332946592465   -0.36635325319050
H          -1.38677760907545    2.61206113243472   -0.51517202718792
H           0.05840044405269    2.09658857581550    0.24193949776398
H          -1.25256579216026    1.01858134558977    0.10216345568324
