    23
        -45.37334893  Gyration_radius:  2.36711663509 Dipole_moment: 2.527
 S          -1.65507276600124   -1.41225500129117    0.26850876384598
O          -2.48068120358397   -1.07246597534770    1.39465612047222
O          -1.69752889209984   -0.37651021844112   -0.78894707010285
O          -0.28710990573240   -1.75755757867839    0.57507111316703
O          -2.30754641578596   -2.70692835866683   -0.39973303211201
H          -3.22601649786398   -2.64103512944113   -0.15433684639151
O           1.75156295718817    0.61227516701125    1.53682046121691
H           1.89976458376214    0.09299058675238    2.32836004317574
O           0.91068996557956    2.58386465624398   -0.37431096647450
H           0.10965307059225    2.49302037700960    0.16138462491099
H           1.62450206450048    2.28539158531039    0.20198147913684
O           2.04390378518005   -1.19481772174153   -0.49823057097012
H           1.25357752889910   -1.65576262410546   -0.14088279347984
H           1.25691566061191   -0.28156413670648   -1.47715380104756
H           2.25613042962562   -0.55877797110978    0.20992825919148
O          -0.91416365072412    1.16384677305436    1.19973384308273
H           0.77859050993117    0.70177129687497    1.45815755007241
H          -1.26084154290644    0.67189518948670    0.42744636166160
H          -1.46227141801901    0.83375359657233    1.91930259302044
N           0.53794181161179    0.39734060782760   -1.90103391740758
H           0.57797631598584    0.42942464716988   -2.91293250752408
H           0.69857152288066    1.34153124431606   -1.47037534421180
H          -0.40854793365049    0.05056898789297   -1.56341435322265
