    23
        -45.37334949  Gyration_radius:  2.36778525905 Dipole_moment: 2.546
 S          -0.46028783155057   -2.13634997892857    0.19437748353761
O           0.31035571476507   -2.76123935549350    1.23402526161602
O          -1.37910991397753   -1.10265803807604    0.72420289009734
O           0.29563600686869   -1.61052473707703   -0.91757410471669
O          -1.41674353587683   -3.26529190660777   -0.40488806113744
H          -1.52851518563938   -3.86744471043192    0.32522394254078
O           2.11283349026028    1.07752066810010   -0.43583374197873
H           2.86749018630817    0.56446325910435   -0.72828952296118
O           0.17342087832021    2.52677447556122    1.10955963957136
H           0.94730474974631    2.59181593250863    0.53717965349323
H           0.37143097284924    1.79036255004806    1.70558866387780
O           0.86636778519722   -0.12134488130084    1.69076854574064
H           1.69158802232626    0.54751450491497    0.27332053758657
H          -0.01343285236656   -0.45333020955927    1.41785689761558
H           1.30867624813266   -0.92447842766592    1.98506678414563
O           0.20018098481060    0.60033880243230   -2.33394524425748
H           0.20752624437493   -0.33815239134165   -2.04430353319304
H          -0.92972912377094    1.04849947947747   -1.36856561668277
H           0.98139847664565    0.96843949236117   -1.88068941633898
N          -1.53809912952012    1.20417558598279   -0.49470498216804
H          -1.01231619250147    1.84539512517614    0.14939298827346
H          -1.59609549463733    0.25446366121142   -0.02057559912621
H          -2.45988051077938    1.56105109959363   -0.71719348552374
