    23
        -45.36241025  Gyration_radius:  2.3317542233 Dipole_moment: 1.727
 S          -0.93715142152622    1.24938376389132    0.85879896072779
O          -1.31495004735541    0.85560641265699   -0.49482450256103
O          -1.87079068795867    0.86374139020735    1.87539253933359
O           0.44623571143088    0.85740517231349    1.13398504923153
O          -0.92166434524628    2.84289864103043    0.85066175911718
H          -1.68436915570985    3.06687565767179    1.37386233178838
O           1.81189580270839   -1.61427068722154   -1.28099930291121
H           2.26058797109289   -2.19707477872753   -0.66657781883854
O           0.21380807626563    1.62791383179019   -2.43562394894492
H          -0.48090594402362    1.44911585980022   -1.75121344908154
H           0.04723705787406    1.01104962898259   -3.15241964664593
O          -0.67254988189091   -1.75580104351368   -0.66248681570806
H           0.81918937140264   -1.73152364045671   -1.10745716505028
H          -0.69377292848578   -1.94875357138562    0.30668616970937
H          -1.03201795972469   -0.85286194369963   -0.72360420194508
O           1.98879010551163    0.84599394516480   -0.79528328713286
H           1.40178885327075    1.25326850389856   -1.53305550377711
H           1.38227064790450    0.90808733735487    0.07458409386949
H           2.01895068093778   -0.17828261225277   -1.00976761638898
N          -0.68223045574283   -1.74628786979215    2.02509424284558
H          -1.09980606834893   -2.41211218791495    2.66439106929699
H          -1.23373956690568   -0.89045664101432    2.06494467825405
H           0.23319421454129   -1.50391515875771    2.38491235479089
