    23
        -45.37890609  Gyration_radius:  2.28856184275 Dipole_moment: 2.623
 S           1.28603684987350    0.75608071302833   -0.74175252749103
O           0.30398464517353    1.35186442144667    0.14710160581385
O           2.38324605935776    0.11510552112660   -0.05851922478810
O           0.63750886469814   -0.13092720303705   -1.71132131012595
O           1.92031042378327    1.94169654890121   -1.58100186732346
H           2.84023540869578    1.69843404439923   -1.58510386881053
O           0.12390689508643    0.67339448815461    2.74800739809025
H           0.29918380792771    1.07584943639795    1.87660460982391
O          -1.86562526038167    0.62106420790843   -2.32909063976087
H          -0.93070681519980    0.35641392047085   -2.21227558754648
H          -1.84657012221542    1.48627047849693   -2.74021456314385
O           1.32350870276820   -1.52050297569316    1.76260633842757
H           1.91564400693080   -1.01322137673167    1.16961133189799
H           0.96118628473906   -0.84297432323200    2.37028368958440
H           0.18146216376834   -1.81820806968923    0.77857625841995
O          -2.14079003230245    0.26887589804372    0.33943682025697
H          -1.33873176098333    0.82691913342471    0.38676966386074
H          -2.42878510106590    0.38559455954176   -0.58461516963098
H          -0.82808191598724    0.70507674921745    2.86582613783720
N          -0.53901328597235   -1.78733862445582   -0.02616600437811
H          -0.04902612253355   -1.32225705737273   -0.82838787140858
H          -1.32685503607324   -1.11868099030105    0.22915545905626
H          -0.88202865006087   -2.70852951008394   -0.27553069863536
