    23
        -45.36220104  Gyration_radius:  2.33749868304 Dipole_moment: 5.457
 S          -1.59845747709600   -0.35087126995643   -0.82838295238221
O          -1.27747723422480   -1.53174307253982   -0.02469422066943
O          -2.68349398851741    0.41991923839568   -0.28661076510961
O          -0.39750227998762    0.40305929450995   -1.15085526107683
O          -2.11099766056871   -0.91522223193119   -2.22870181781700
H          -3.04447044042314   -1.01418200742642   -2.07132230454403
O           1.02240267034148    0.05054134700039    2.34472901809357
H           0.89554002852760   -0.19627442636982    3.26262311421362
O           0.08786336660170    2.86506245633941   -0.17643968288988
H          -0.13813411966457    2.05117120405784   -0.66672166118244
H           1.03566222182702    2.83808382799595   -0.03353465506951
O           1.05764212426427   -1.88811057190486    0.71125703971647
H           1.57070190477544   -1.54054660589980   -0.16365804594047
H           1.12247081158683   -1.13581533728676    1.41000185375995
H           0.05366158036283   -1.83240167785238    0.41473645464894
O          -1.14278191907745    1.32718637759185    1.70190784415474
H          -1.81111648005315    0.94462699271241    1.10513790203525
H           0.18690776205189    0.54194141330905    2.08304516955273
H          -0.80886474228504    2.10630473852156    1.21761094960064
N           1.98725893246838   -0.92452136777589   -1.43129156874097
H           2.80184903185895   -0.32517616915675   -1.42842532020276
H           1.14459246089902   -0.34409030560530   -1.53586625864268
H           2.04674346633207   -1.54894183672877   -2.22454482150754
