    23
        -45.37334891  Gyration_radius:  2.36747780483 Dipole_moment: 2.528
 S          -1.33885953257371    1.10933504989220   -1.33627764004683
O          -0.22197927701631    0.29750973707677   -1.87140988258255
O          -2.60915101605830    0.45592048606726   -1.49372168180963
O          -1.02996633398123    1.56663542931138   -0.00205245955017
O          -1.37908511340265    2.41030304720982   -2.26080675651607
H          -2.01119405987078    2.17912096781253   -2.93547138644496
O          -0.33337252488186   -0.66476650626210    2.29269934719805
H          -1.05546463499285   -0.29424201066779    2.80209056559875
O           1.34679351825208   -2.32405470079447    0.65710774570641
H           0.49047998254843   -2.44188960462052    0.22167824672377
H           1.12735662313962   -2.05211254136490    1.55633069032648
O           1.11645813367585    1.52105805593500    1.51157742414060
H           0.76162205414522    0.79392695369308    2.05617561162622
H           1.78627354360683    0.71977843070295    0.36345099273434
H           0.33205259263467    1.79949055645561    0.98991355378551
O          -1.18565164093336   -1.47971543995162   -0.18251310102994
H          -0.80661349277409   -0.89819276709241   -0.87305887397776
H          -0.70823065341687   -0.86320681294649    1.40881288041332
H          -2.13293568451219   -1.36619717241001   -0.31293516275119
N           1.96314715444094    0.04816507519560   -0.45857820238252
H           1.14715431411076    0.19792197707337   -1.12315648542530
H           1.89207667581821   -0.93238413619019   -0.08983358170908
H           2.84908937201371    0.21759590589586   -0.92002182402068
