    23
        -45.37334886  Gyration_radius:  2.36752344871 Dipole_moment: 2.526
 S          -1.52486837498700   -1.56791300587766   -0.16103087563541
O          -2.42248457362876   -1.56682834059473    0.96129715228037
O          -1.62023953393502   -0.32155487647689   -0.95491788192853
O          -0.14424983537802   -1.86400977267374    0.14049715632085
O          -2.02864852434974   -2.71975279656142   -1.14499128996428
H          -2.95716703911355   -2.78938469031744   -0.94217303815024
O           1.62324380347546    0.38318303623727    1.74000873023910
H           1.78797610133385   -0.28877623909938    2.40290790985585
O           0.67810201699750    2.66669852755664    0.27634209550293
H           1.39316910234741    2.30334690702550    0.81232835205672
H          -0.13147500234641    2.38867892039134    0.72799688022190
O           2.16416726720572   -0.87481575971542   -0.62966703350996
H           2.28640031256244   -0.40486067405445    0.21614503439543
H           1.40671207415077   -1.46950996738399   -0.43580517687679
H           1.33677128973506    0.17186863630262   -1.42281959382762
O          -1.06583816076508    0.77419704141519    1.37571617716832
H          -1.33279984764780    0.44813532095410    0.49194072800243
H          -1.60917360280453    0.24173422779361    1.96603960957667
H           0.64994333546392    0.40814824656265    1.62526906341138
N           0.57529512978964    0.86911904261842   -1.72617205962291
H           0.62882929110771    1.69853754144269   -1.08450763361823
H          -0.34734408242220    0.37740466176123   -1.53407727838788
H           0.65367886319757    1.13635402268480   -2.70032703751100
