    23
        -45.37334893  Gyration_radius:  2.36747076711 Dipole_moment: 2.528
 S          -1.21404920348581   -1.82616414782874   -0.02808263651213
O          -2.29198612945811   -1.77448827263162    0.92097875464433
O          -1.35032363262499   -0.79889724045964   -1.08591651853413
O           0.11644741985646   -1.79367842869006    0.53182328832138
O          -1.34759707856709   -3.22130518096047   -0.79256442276033
H          -2.27637695471742   -3.42197943484683   -0.71970793145570
O           1.20112776935329    1.01118838919314    1.82891302634155
H           1.34223590326699    0.52420103875766    2.64203649896500
O           0.20340774266419    2.74838030062176   -0.22943476668808
H           0.85525762058506    2.63610189217779    0.47288027582206
H          -0.62327325504962    2.41685101409390    0.14940681681322
O          -1.40412342010888    0.81387998066706    0.99659476214741
H           0.27292399616708    0.83026742598247    1.57032433973352
H          -1.45246091994779    0.27781782639408    0.17871370118679
H          -1.95936564356065    0.31490918260067    1.60486001662456
O           2.34954705386579   -0.56061852611010   -0.09489381363863
H           2.24339116687069    0.07960040817309    0.63315326638776
H           1.66820270383742   -1.23664878271036    0.11426973814701
H           1.53222816957064    0.13854858872693   -1.21386218637617
N           0.74227500183858    0.60869654869044   -1.77331685918087
H           0.55109347598371    1.54218423658408   -1.33224815815009
H          -0.11446610603477    0.00002568510258   -1.61363321584671
H           0.95588430970434    0.69112748645233   -2.76029396598240
