    23
        -45.36241090  Gyration_radius:  2.33163850889 Dipole_moment: 1.713
 S          -1.27399831212096    0.89370926138585   -0.86902343373841
O          -1.05987018670012    1.29401134540285   -2.22833735346166
O          -1.39834733834148   -0.54730202886028   -0.67258482308575
O          -0.31224488138016    1.45454593886673    0.08132020303442
O          -2.68200755176810    1.50541868473627   -0.44132495585227
H          -3.06486944550861    1.76416706171101   -1.27324318872139
O           1.84378230105074   -1.09311129982507    1.71284805273459
H           2.68501073767457   -0.63660404638460    1.66334648027406
O          -1.93819086059161   -1.38655759416700    1.71572378153605
H          -1.62764678521516   -2.29479966683145    1.74337090902962
H          -1.89189875458016   -1.10825216131074    0.76523820974822
O           1.13147579707438   -1.47308851315391   -0.72082826291021
H           1.52538274212165   -0.72453463699454   -1.23220498596443
H           1.59533079075306   -1.33121133149979    0.75838396523455
H           0.17389526796113   -1.30206287652920   -0.76650825606282
O          -0.15094339528609    0.32972521015786    2.27475123599749
H          -0.92055137895697   -0.34791900204931    2.21765166598595
H           0.71806576288455   -0.23729181102762    2.13487340116999
H          -0.23900206365983    0.88954241753111    1.37649216310276
N           1.76080082827603    0.82861163526467   -1.95733780543176
H           0.79288632094496    1.00188012353567   -2.22446428563111
H           2.33785996696571    0.97552762475707   -2.77696214452366
H           1.99508043840272    1.54559567531763   -1.28118056241658
