    23
        -45.36241053  Gyration_radius:  2.33164192553 Dipole_moment: 1.715
 S           0.04803283852318   -1.38875184438702   -1.11527155590335
O           0.18464659876079   -0.03122909769075   -1.63368350707806
O           1.23596100011605   -2.18504808034057   -1.20736407556357
O          -0.55732338249946   -1.36473228005004    0.21730565808456
O          -1.03414772445067   -2.09445552133478   -2.04824056074253
H          -0.51234937593600   -2.70778611585464   -2.55536714239336
O          -0.52160041392566    1.98759324942633    1.81783234145329
H          -0.26269350877245    1.73035291213840    2.70404241760381
O          -1.93442494312824    1.45475617996557   -1.66495587358435
H          -1.61209084290375    2.35925487613355   -1.67564580294352
H          -1.14314518532145    0.87826206294749   -1.82182163601065
O           1.45027915376564    1.33146774930569    0.31596103025741
H           0.28623913290794    1.81829144057502    1.22768922621196
H           1.87039898304573    0.55240491579995    0.75587783334338
H           1.07268733857029    0.95710804529290   -0.49986104520552
O          -2.15562160599201    0.46507443759300    0.66408906678643
H          -1.53437642392903   -0.37937325075673    0.49371634171448
H          -1.54962094394692    1.11736055979596    1.21518012943478
H          -2.23796076489425    0.89983089536111   -0.26261872234045
N           2.21598761163511   -1.06925259671966    1.25049056493249
H           1.52908940486050   -1.43662375720022    1.89804378933941
H           3.13078214673774   -1.36890855340271    1.56628522264411
H           2.03125092674442   -1.52559621663914    0.35831630996138
