    23
        -45.36842710  Gyration_radius:  2.29703974183 Dipole_moment: 5.027
 S          -0.26114612322740   -0.61492006915956   -0.42020169231973
O           0.03241313828178    0.83482229273635   -0.36399225494120
O           0.58201466980282   -1.26979253610004   -1.39108735091334
O          -0.20944441615367   -1.19656118405754    0.91211644543110
O          -1.75605526130703   -0.72184645546857   -0.86093523863783
H          -1.73918542866637   -0.48864604287483   -1.83576324579439
O           1.82306519508979   -0.22583166119541    2.35628285094857
H           1.16176163279076   -0.89565461732586    2.10254844979138
O          -1.93933620387838    0.19604625285972    2.29024331440753
H          -2.68935689844227    0.36558094867879    1.71684906907311
H          -1.41246875723527   -0.50519475428225    1.84104977980154
O           2.70116498168150   -0.10869948001438   -0.16987937547237
H           2.51539689048685    0.77781918777052   -0.49017668885507
H           2.39904684625372   -0.16936648638367    1.56096587764237
H           2.07694675677733   -0.68431942259756   -0.64745412719219
O           0.17593172423665    1.61709563725142    1.96640316217397
H           0.12455580030553    1.39675115879560    0.91790242459910
H          -0.69555400451182    1.21745517029181    2.29317961502655
H           0.93394208258108    0.93448032188647    2.27110382470759
N          -1.13691178132555   -0.14238735031421   -3.32209010511719
H          -1.47006335111530   -0.56595018275197   -4.17837235589333
H          -0.26272206907370   -0.58788685526795   -3.05195131462077
H          -0.95399543334019    0.83700613749012   -3.49674107383335
