    23
        -45.36220111  Gyration_radius:  2.33755148931 Dipole_moment: 5.451
 S          -0.83842564661267   -1.61064038590716   -0.25598598480446
O          -1.02033002734714   -0.84525262625956   -1.49072801021304
O           0.08751557451653   -2.69988461728666   -0.40123213723859
O          -0.59205352510845   -0.72799771895103    0.87312929283535
O          -2.25691680915905   -2.27206823526409    0.04822175496904
H          -2.19521622027478   -3.09607554890966   -0.42416883091424
O           1.78177623790620    1.47753371743036   -1.09044132052180
H           2.30747712785138    1.62081675495458   -1.87952511046814
O           1.76291017850437   -0.64672360179383    2.17442238822118
H           0.85865723426639   -0.77258584378515    1.82754582943180
H           1.84373195499754    0.28619956120708    2.38096864987529
O          -0.72570719999777    1.61052801262072   -1.43959571412133
H           0.29536680717958    1.64754391572841   -1.31881908098837
H          -0.90197308022713    0.58211894060272   -1.54320674135906
H          -1.15638146478360    1.81746547643662   -0.48032564311703
O           2.16410101082425   -1.01744658730096   -0.49156829079019
H           1.46965348950020   -1.69037554310003   -0.61028072947549
H           1.91828582545804    0.51193489971385   -0.85125515695948
H           2.31380132351841   -0.99724978476044    0.47298460298552
N          -1.70323537236895    1.78125797574327    0.88422572428473
H          -1.31172646158193    2.40812850384143    1.57455104694134
H          -1.38966654061689    0.82275944344589    1.08620825324121
H          -2.71164441644336    1.81001327159308    0.95487519818587
