    23
        -45.36241148  Gyration_radius:  2.3317079293 Dipole_moment: 1.696
 S          -1.21482635718176   -1.28557916560860   -0.22010375253426
O          -0.84477399590995   -2.65507681596727   -0.01656807211469
O          -1.22450354005364   -0.47288936909830    0.99250785430396
O          -0.46227797499187   -0.61001641520699   -1.27817946360248
O          -2.72318190738851   -1.30319029037581   -0.73375817597175
H          -3.00955417601409   -2.18730448041468   -0.52889999814516
O           1.67197158818379    2.17543348040578   -0.06019518482826
H           2.46209233367432    1.99913879871765   -0.57316803155732
O          -2.02095668848452    1.98059366716731    0.78231844490774
H          -1.86360472237838    1.01455139562317    0.94142373624802
H          -1.62850089398754    2.44121894526600    1.52793446445984
O           1.36422913391229    0.12213170770032    1.44451516361214
H           1.59079163929649    1.41285197385466    0.60405895652538
H           0.41156199005257   -0.07897098522325    1.46000457961471
H           1.75309789840746   -0.63588346523713    0.94319735143400
O          -0.51467059688984    1.85963348695268   -1.25957971693730
H          -1.19637833917709    2.04699810995925   -0.51471467263223
H           0.41725492377897    2.06679065408037   -0.82983328743325
H          -0.52480982814678    0.80145610147896   -1.35175538349071
N           1.93828690045566   -1.96120713342183   -0.15308869053524
H           1.00685652562501   -2.35943467116973   -0.04313351885372
H           2.61049563395575   -2.70612941961778   -0.01313651080918
H           2.00140048320888   -1.66511609992689   -1.11984610164454
