    23
        -45.36842703  Gyration_radius:  2.29705268485 Dipole_moment: 5.028
 S           0.16497587663242    0.18574523308197   -0.74985320808298
O           0.04173227414671   -0.78946597747145   -1.80634538751360
O          -0.86198088366228   -0.03804314599665    0.29243914344116
O           1.48875096941480    0.26164356030625   -0.15170011391635
O          -0.11686131038375    1.61488647607802   -1.31442700115307
H          -0.94046643437503    1.49698700661076   -1.87368292201844
O           1.82281368893892   -1.55087343622783    1.78817119079990
H           2.12176531674215   -0.95150403203331    1.07988277142581
O           1.29674552317379    2.19375276727231    1.59825212038467
H           1.54144477691062    1.59045332762641    0.85853107064084
H           0.75488400571613    2.88092582868631    1.20549006777795
O           0.08937203508396   -2.70496903214228    0.10618552104879
H           1.27594603635265   -2.21061869552983    1.30522702696766
H          -0.79197620515816   -2.52090859574431    0.44139233410181
H           0.17006835208927   -2.16339194258603   -0.69963524835877
O           0.11823888078574    0.11707259088716    2.54588674631285
H          -0.42005221366539    0.03975279454375    1.62123007570159
H           0.86314631184443   -0.62932770238976    2.39983635637120
H           0.59445907624518    1.00235469901683    2.42183920414870
N          -2.16372285742111    0.74414031630729   -2.66652039437453
H          -2.43820317127251    0.95911855230871   -3.61632798874821
H          -2.99835303411444    0.58375288830703   -2.11797051789052
H          -1.61272701403452   -0.11148348091348   -2.66790085708300
