    23
        -45.36220120  Gyration_radius:  2.33772142059 Dipole_moment: 5.448
 S          -1.26243287013595   -1.28771659313210   -0.33395967230698
O          -0.75698773990271   -1.53942916500782    1.01683888965799
O          -2.59955664775999   -0.76147828935774   -0.34454910053499
O          -0.29287584362770   -0.54532448767026   -1.12356699769123
O          -1.34364746112960   -2.71879990454103   -1.03213021205569
H          -2.22236847261425   -3.00130013324922   -0.79981353428414
O           0.54795857578739    1.80793153567347    1.72671992269646
H           0.34127236059733    2.14929064878066    2.59868464687783
O          -0.71734086875588    1.97920739673045   -1.95558581162384
H          -0.60970071946522    1.01995216609893   -1.80645331836947
H           0.15925331196905    2.36178943119941   -1.88620347375141
O           1.41849081839479   -0.57269686636822    1.68974543801918
H           1.14324898194811    0.41685883742241    1.75034940248541
H           0.50739516416629   -1.04628438973604    1.47737169235750
H           1.95205752698890   -0.68725155330034    0.76756263878588
O          -1.74896394338640    1.61567661158381    0.53658655380345
H          -2.16633195721454    0.75467589600273    0.35309210937764
H          -0.33573262578264    1.72479652491975    1.25709903218608
H          -1.57670610703272    1.99022785476812   -0.34838020992023
N           2.38496862603475   -0.88088553285687   -0.62460108292353
H           1.44184891069770   -0.80658429870615   -1.02810954416745
H           2.75724511838818   -1.79459137960111   -0.84648694406738
H           2.97890587183369   -0.17806429965292   -1.04421042455053
