    23
        -45.36320341  Gyration_radius:  2.36898931964 Dipole_moment: 3.244
 S          -1.98467637305516   -1.11207896407303    0.36958622753275
O          -1.22393777310614   -1.77345023654807   -0.69124642802667
O          -1.81795363961275   -1.74018538250186    1.65302248569951
O          -1.71466999134101    0.32432260922844    0.36305597513075
O          -3.51945222262169   -1.26814965082344   -0.00964461564437
H          -3.81234975483194   -1.96218977393641    0.57303886650663
O           2.13376233128925   -0.93966181573920   -0.15703581355807
H           2.25746879006293   -1.88683038998266   -0.07197588576600
O          -0.34188093626352    1.74800982329445   -1.37139073503016
H          -1.03051579675437    1.39967100154624   -0.76234723550209
H           0.40994674342863    2.03837316233277   -0.77624209254496
O           0.42510818047439   -0.49541109174261   -2.04458799289890
H           0.09919929103699    0.55115569412284   -1.86563374880581
H           1.21125760995464   -0.64022729019608   -1.42497773771092
H          -0.32369759854777   -1.06143450567237   -1.59013015798728
O           0.43349248315884   -0.23323220320531    1.75370018532888
H          -0.33895331340762    0.14878872620291    1.28587926688035
H           0.03457021202188   -0.98849939574285    2.20425290816156
H           1.55601359951133   -0.66827961574262    0.60169427297293
N           1.68924281355080    2.15272184353336    0.30286966711961
H           1.36842327141088    1.69559120642996    1.14957573401961
H           2.00342031094156    3.08329799442020    0.54567184683444
H           2.48618178270325    1.62769824479814   -0.03713499271418
