    23
        -45.36320059  Gyration_radius:  2.36879470943 Dipole_moment: 3.224
 S          -1.28043668036415   -1.84547118928863   -0.51458583406093
O          -0.58174910823545   -2.94554270502564    0.09480265041160
O          -1.98100607197796   -1.00800704367671    0.46030546372495
O          -0.45321640535490   -1.01756583131172   -1.38960145649180
O          -2.39627677753385   -2.48275597399321   -1.44803813876308
H          -2.49490600462243   -3.36031863490436   -1.09180429604205
O           0.51422193256728    0.79920916024401    2.12882718114003
H           0.17799754655651    0.35352467781797    2.90858143765009
O          -0.30522357505027    1.60469961346104   -1.54616503247675
H          -0.38763682761391    0.64536091828786   -1.74392339906644
H           0.64053438489767    1.72794612004340   -1.23970587950115
O           1.36672743666963   -1.10628476743703    0.49198881701872
H           0.82493661665657   -1.01010937216306   -0.31954957890855
H           0.89817931968978    0.09065023726148    1.55093650496077
H           1.11812816440335   -1.99146454713913    0.78768373471394
O          -1.48282067008597    1.42328881846434    0.61160552508581
H          -1.01408260393885    1.61938944851842   -0.37548409353196
H          -1.81491959242474    0.43770462731182    0.52940446675530
H          -0.71239248951158    1.33829469276105    1.26136650035657
N           2.11351087372898    1.71297190633772   -0.43616813280742
H           2.01667738795436    2.12418158063494    0.48462788483237
H           2.89474859639826    2.15739320838684   -0.90066611735561
H           2.33900455719009    0.73290505540920   -0.30443820764279
