    23
        -45.36320405  Gyration_radius:  2.36872225302 Dipole_moment: 3.237
 S          -2.11019258349867    0.51704667069752    0.76807354862476
O          -1.39258266043434   -0.28842341619280    1.75666054082549
O          -2.06190050058944    1.92642599874292    1.05228234484071
O          -1.67774567400655    0.16069139460143   -0.58197116003830
O          -3.63838935839859    0.09322851101517    0.86199902559955
H          -4.03092453205925    0.81947101026553    1.33671735339317
O           2.01419433408853    0.21936046394527    1.16543884698275
H           2.01956246663284    0.54873627417265    2.06615290397734
O          -0.09166463051620   -1.78888110309415   -1.35752615375077
H           0.66843216297816   -1.24139973486712   -1.71334572051407
H          -0.83600171042523   -1.15528972898443   -1.25170924630609
O           0.43342560254046   -1.82201082499154    1.04994968893631
H          -0.38942289939815   -1.28503174812101    1.39850016211561
H           0.22454032149846   -1.93474310265526   -0.03589209534771
H           1.17695016441390   -1.13898266069933    1.10973973550880
O           0.34495444839432    1.77706996172041   -0.18813828067998
H           1.44737636462847    0.84607711238328    0.64690132002713
H          -0.36313832373252    1.18071839630598   -0.51143866506088
H          -0.15215288288239    2.38130332247331    0.37776276707731
N           1.91532666359038   -0.15030212926463   -1.97161317745116
H           1.51611958489601    0.76275425346574   -1.78231225294557
H           2.32429093106607   -0.13074138812306   -2.89683259922768
H           2.65894271121530   -0.29707753279252   -1.29939890657811
