    23
        -45.36320592  Gyration_radius:  2.36852335407 Dipole_moment: 3.246
 S          -2.08730013645716   -0.82891529699153   -0.51630371212378
O          -1.30888410147038   -1.82410279819529    0.22113620331763
O          -2.99631674674711   -0.09291550661104    0.32131341025815
O          -1.19964227310601    0.00964514542325   -1.32037221241668
O          -2.98534566756902   -1.63277148471852   -1.55149821152051
H          -3.85449402992315   -1.57516463176793   -1.16649584850056
O           1.06858277224489   -0.06953466911307    2.07911507821187
H           0.63981880017511   -0.48233309456970    2.83111167399697
O           1.38084022543367   -0.24636514636106   -1.75441828006709
H           1.70125702144492    0.58518262557358   -1.29596160681358
H           0.40869994755819   -0.12974347978733   -1.84625915984108
O           1.17764210361031   -1.79115591081591    0.15409437256629
H           0.14493003260034   -1.92882030118889    0.13564484359562
H           1.36887585975317   -1.16833659160777   -0.74795138148282
H           1.29664469833807   -1.16624261179385    0.94013385406035
O          -0.79026956425443    1.38848000758032    0.86829756063520
H          -1.67807684215862    1.24099027478761    1.21810416728834
H           0.39187816801458    0.52955706811119    1.67179351237682
H          -0.86800250276993    1.01415263719204   -0.03468541033666
N           2.02410598581355    1.84703281192177   -0.24071896402404
H           2.55642990516578    2.62650670214207   -0.60496870478801
H           2.49300797209097    1.50293262771110    0.58880678339618
H           1.11561839221252    2.19192161307669    0.05008201220973
