    23
        -45.36220114  Gyration_radius:  2.33760040052 Dipole_moment: 5.452
 S           0.82990211953484   -1.49756665979238   -0.65714341490691
O           1.88913187864375   -1.96224257220061    0.19552000796993
O          -0.49665771587833   -1.92080742278213   -0.20480379092381
O           0.84910687860021   -0.07492572592061   -0.95781638563040
O           1.04812596667568   -2.21272036388128   -2.06536794732469
H           1.44352050686577   -3.03913789625666   -1.80720198835820
O          -1.16140439005545    0.82397279246774    2.12614427104665
H          -1.53489272407186    0.56041089490966    2.96909700945856
O           2.26189916475121    1.70271211657202    0.48798524006903
H           1.68233148240425    2.46665483493113    0.48478907675964
H           1.87633120367573    1.06439684127725   -0.14268782828517
O           1.21429181248713   -0.21781262264714    2.10661701796072
H          -0.24163159032261    0.42173881669773    2.10508330440094
H           1.44329398945745   -0.97339358995901    1.53577744673077
H           1.77632444008545    0.50904744177511    1.77648840536900
O          -2.26618265540319   -0.21830222662887    0.09631091972524
H          -1.89831433728869    0.24950296489681    0.93557633774246
H          -2.03834218443065    0.41832330609345   -0.73520970396748
H          -1.58741713342862   -1.00630398424726   -0.03680320325379
N          -1.43830970311205    1.13671197709991   -1.86920350625429
H          -0.48723946212906    0.77591386709417   -1.71704267966936
H          -1.41587016367476    2.14734609978202   -1.83898614795933
H          -1.74799739338529    0.84648112071851   -2.78712245069749
