    23
        -45.36320422  Gyration_radius:  2.36885415249 Dipole_moment: 3.239
 S          -1.47788725783319   -0.93546327013464   -1.50091902606053
O          -1.45495325908662   -2.34309890637399   -1.20500620097810
O          -2.20206392917356   -0.15344940543544   -0.49833048672160
O          -0.15971546649303   -0.35064393892282   -1.74027334416103
O          -2.27927127556678   -0.77751076303348   -2.86343225554480
H          -2.72997733920414   -1.61278075897992   -2.94113611089544
O          -0.14838118556906   -0.04273458298299    2.33037903972337
H          -0.88636984899911   -0.47754655344925    2.76169578026146
O           0.84384259683163    1.90716445860111   -0.83818824538210
H           0.55164790037896    1.15519698246337   -1.40011553760258
H           1.57895658121098    1.53641110305499   -0.26729632452749
O           0.63591155620501   -1.66376262932643    0.38152079151395
H           0.18810315693638   -0.68165929865057    1.65088873226592
H           0.03209262743188   -2.40397575563262    0.24004510211054
H           0.51745108786919   -1.15092887970113   -0.44579036238372
O          -1.08137143711881    1.72244503719001    0.68917673842824
H          -0.22499051998867    1.93539696278198    0.01401827166781
H          -1.64091448775200    1.02387907678166    0.15432529348147
H          -0.69778214978948    1.16259930169361    1.43902699033218
N           2.53020799280568    0.69806419800940    0.83098020900317
H           3.52773742324995    0.86305528336087    0.79508419834149
H           2.36400731953617   -0.28333885736215    0.63594600531868
H           2.21371990411715    0.87268118604418    1.77740074181029
