    23
        -45.36320322  Gyration_radius:  2.3688850932 Dipole_moment: 3.239
 S          -1.49515790854225    1.48036515864703    0.94050578112529
O          -1.94072129208370    0.83146512919085    2.14469793350182
O          -0.13218941809300    2.00268905709929    1.04618032420333
O          -1.63134455366105    0.66743833151551   -0.26646165232975
O          -2.44561628173983    2.73568263276558    0.72950628425789
H          -2.83347642221426    2.85450804725341    1.59106977069504
O           1.99166869925936   -0.77600776063742    0.94131160327944
H           2.26957067687043   -0.47486644011068    1.80836579018524
O           0.08551902050783    0.30277541998171   -2.22585583773100
H           0.26513543144983   -0.67452206827978   -2.09779843953843
H          -0.71655728544993    0.48822941735217   -1.68845942646053
O           1.61963464727201    1.28875027316172   -0.56800907804202
H           1.91851151409062    0.47268951920640   -0.05072447251559
H           1.00590185930974    0.89643128574767   -1.40668807297225
H           0.91175835537420    1.71016888261654    0.07139644792384
O          -0.60345748240025   -1.29635157128875    1.12897032203223
H          -1.03603292548555   -0.69403720543653    0.48750550247953
H           1.03980926741703   -1.03805109874691    1.03334629472227
H          -0.98836865615617   -1.00088513851661    1.96391168306064
N           0.62717446612084   -2.20775053391225   -1.52138342819735
H           0.50902554179351   -2.98005405673064   -2.16423205725022
H           0.00472737171521   -2.35302030095188   -0.73382370345715
H           1.57448538464662   -2.23564697992573   -1.16333155897187
