    23
        -45.37611111  Gyration_radius:  2.37899648381 Dipole_moment: 2.488
 S          -1.68420913962374   -0.40036851812122   -1.00250861294743
O          -2.30174152567657   -0.10945910711563    0.27096094611000
O          -0.86516386940136    0.68842037753932   -1.51310724520441
O          -0.94852199197079   -1.66252466260719   -0.99130706582481
O          -2.86757495547758   -0.58119407204639   -2.04120001896288
H          -3.46652978243895   -1.11268110035048   -1.52824867246995
O           1.36907426508968   -1.19127686430941    2.28470479332506
H           0.96007233283442   -1.91443900431998    2.76245808389837
O          -0.01936488386458    2.53625200127606    0.19291389118199
H          -0.61677687059165    3.28265398663704    0.25603724785582
H          -0.43552390630394    1.90597692476551   -0.43624426715082
O           1.80283069746137    1.00014325788530   -1.46685254188131
H           1.82078717039762   -0.46338908191193   -0.75366046205397
H           0.87783750782684    0.91925632641910   -1.77056883298497
H           1.77725701822778    1.72092365463403   -0.82690351070898
O          -0.49349946027781    0.61484747998578    2.09447984133938
H          -0.18064130703485    1.40473268476215    1.62107164582340
H          -1.23226318975229    0.28269734684332    1.54452438782504
H           0.69405574430807   -0.45402157018186    2.29149147586878
N           1.54968976509203   -1.39995568635561   -0.34931234886380
H           0.53441072361585   -1.56872508080349   -0.63929914781315
H           1.57639020135362   -1.36285857666744    0.70803007604302
H           2.14940545619874   -2.13501072595885   -0.70745966241031
