    23
        -45.37611117  Gyration_radius:  2.3788929812 Dipole_moment: 2.484
 S          -1.47451412461472   -1.31606440961815   -0.30649321131896
O          -1.98342603795524   -0.76371884713145    0.92790015109438
O          -1.26404612585554   -0.31968081924689   -1.34562935946451
O          -0.28220037263393   -2.13507634514922   -0.10224998438815
O          -2.59807904878745   -2.28973589132527   -0.85579042368467
H          -2.84683372127693   -2.73463815494408   -0.05296768187831
O           2.02943300472095    0.37386341737745    2.06164861869701
H           2.02850333070636   -0.18626582185514    2.83931288758810
O          -1.06010137273935    2.22618157229951   -0.62651995369996
H          -1.25019576296192    1.29542536638821   -0.87907852309354
H          -1.90266635773360    2.68226253612686   -0.63709695174694
O           1.00595898494505    0.86891326806976   -2.15304625256525
H           1.73125216142078   -0.08136511305884   -1.04725807490552
H           0.16970253140068    0.36399191741702   -2.14225691885329
H           0.76386166258818    1.73111786632429   -1.79567765736829
O          -0.42633952590843    1.20206354771855    1.83925296157032
H           1.11450461729330    0.77491573301989    2.02300039027226
H          -0.54012963857748    1.78782934331180    1.07121218995596
H          -1.02166963203007    0.44692878169785    1.65512121511958
N           1.93456230361373   -0.80596537733123   -0.30725019584510
H           2.73510187897631   -1.37184449069854   -0.56635075517073
H           1.05602059553096   -1.41061191420941   -0.23074946115825
H           2.08130063989018   -0.33852617519426    0.63096699083186
