    23
        -45.37611099  Gyration_radius:  2.37890209191 Dipole_moment: 2.488
 S          -1.56460009581362   -0.64840671929438   -1.06460815704512
O          -1.51057681579496   -1.05750241734021    0.33065983181698
O          -1.80905699951553    0.76450562673206   -1.24265848786699
O          -0.39124128463758   -1.10987113925597   -1.80243149085625
O          -2.81191547557509   -1.39883705754573   -1.69188104720602
H          -2.92673817868760   -0.90015707899230   -2.49336291628622
O           2.40217412987953    1.54464504794419   -0.59950800709350
H           2.52653078680414    1.91522668590369   -1.47455327230771
O          -1.05813890142910    0.80068336839039    2.16990696776503
H          -1.86548301044426    1.18229468537388    2.51712384731859
H          -1.33515153118357    0.15157263686225    1.48571393505743
O           0.61416551766136   -1.55897502736696    1.89654255938715
H           1.49428118130932   -1.24607310367740    0.56275132728771
H           0.48361228628328   -0.77563233757654    2.44340734068133
H          -0.22627965066379   -1.64944178220426    1.40675529398367
O          -0.01381665893686    2.23374930096533    0.07568185744655
H          -0.66825075161127    1.80821911404961   -0.51516596261433
H          -0.24504292000187    1.90705543747143    0.96211529446051
H           1.51448579241518    1.88548715772969   -0.29128593796348
N           1.80270605101160   -1.02886782745966   -0.42301223888234
H           2.14802102213261   -0.03042343916006   -0.48584012130323
H           0.92863521137452   -1.10470180824821   -1.03408298016607
H           2.51168032542217   -1.68454933329737   -0.73226761560486
