    23
        -45.37890672  Gyration_radius:  2.28846331614 Dipole_moment: 2.632
 S          -1.24455296829005   -1.07670365845447   -0.25997172541166
O          -0.72110543290243   -2.23854143761306    0.41641392933416
O          -1.26876298920933    0.12274468002417    0.55853798872507
O          -0.56834036028628   -0.82101907996842   -1.53484782497845
O          -2.75126900291776   -1.41462486725051   -0.61766256491702
H          -2.75890987803048   -2.36176233058579   -0.52649200737437
O           0.20326354685226    0.36270692102977    2.80231254860329
H          -0.47983531384741    0.22491670967432    2.11942981762211
O          -0.82559969253338    1.71574435212249   -2.37871026527828
H          -1.75191309417739    1.90921722350248   -2.52849064477977
H          -0.77964070768353    0.76146366071134   -2.16675861898371
O           1.60828844841938   -1.52404277136860    1.50228215996555
H           1.26612286064854   -0.91840077613992    2.19198502228951
H           0.81106967356862   -1.99849433664760    1.18778910637570
H           1.86321366634403   -0.62662088010783    0.28126153466110
O           0.39435071654367    2.14897739069752   -0.00282425978560
H           0.07268797799978    2.36165015459295   -0.89824472221596
H          -0.30313855936099    1.55529649484888    0.34064652239883
H           0.44940440064646    1.28864398224229    2.74528835909281
N           1.76641590421695   -0.01519759931303   -0.60441651078726
H           1.42952367965618    0.95621409652198   -0.32930126880516
H           0.96864956722429   -0.42644582744169   -1.14717650334557
H           2.62007754713195    0.01427791897796   -1.15105007240146
