    23
        -45.36041097  Gyration_radius:  2.31781203307 Dipole_moment: 3.836
 S          -0.12894465124438    1.37623778613590   -1.08913880628857
O           0.01569962784166   -0.00345040753588   -1.56067380032650
O          -0.45439126690252    1.37445416666837    0.35492424113002
O           0.95072863840587    2.24315493306907   -1.40924263872291
O          -1.42781731614579    1.92824785756389   -1.80870235799843
H          -2.11083200133907    1.25735569492512   -1.73799539079119
O          -0.03853339145510   -2.16937731835583    1.66351062934363
H           0.33437947076910   -2.09132417132786    2.54318537673624
O          -2.38298125800038   -0.82353483182475   -1.38370191230521
H          -2.59361232584723   -1.62146495354784   -1.87197389060605
H          -1.42029645664413   -0.62638162504738   -1.55631822939817
O          -1.82449270505833   -0.48566720560496    1.13308901277060
H          -1.20792333728872    0.40263781580660    0.83578504463067
H          -2.22502283135669   -0.76301446323662    0.26333834395912
H          -1.12031781382334   -1.21810549257628    1.39773137465196
O           1.74972578966069   -1.29443055844530    0.05439329643548
H           1.21758083089688   -0.96029763257773   -0.68795466260120
H           2.15509085211497   -0.47660425626946    0.43458262091092
H           0.70028699725389   -1.90225337840232    1.01821231130412
N           2.45662657763611    1.18192878533557    0.83514323183827
H           3.39043572143094    1.54008416619223    0.99760619583175
H           1.86348307685403    1.51241315215155    1.58707127350714
H           2.10112776247201    1.61939194663458   -0.01287128388573
