    23
        -45.36655768  Gyration_radius:  2.28256495441 Dipole_moment: 2.053
 S          -1.16919044969155   -1.15055235580007   -0.53597101218859
O          -0.88391423062264   -2.32439323276408    0.28665952188526
O          -1.49555054010046   -0.00490410797950    0.30811058910982
O          -0.13506326890025   -0.85021204938919   -1.49635410810765
O          -2.46874281356767   -1.50675879398715   -1.35442666230981
H          -3.00687317192310   -1.93655231969979   -0.69785472145420
O           1.94573029237175   -0.33126238193740    0.06739126085039
H           1.37778140063460   -0.63302016320104   -0.67230173492980
O          -0.48004114250585    0.26437280941305    2.74337988096853
H          -1.06491142245139    0.18377978001671    1.95886922497351
H          -0.01869853129520    1.10187428267058    2.62700645277824
O           0.92683825245201   -1.67324398990680    1.87947650924049
H           0.43019922380607   -0.94582642325663    2.40711219652579
H           0.19005346353438   -2.09477075150062    1.28659817425994
H           1.51436027393439   -1.12690260546420    1.14378829611049
O           0.50143852614608    1.82216357441829    0.37392934881651
H           0.61043712927118    2.15617261197100   -0.54222210080503
H          -0.31926021100117    1.29724648173093    0.32078792231251
H           1.59612265041046    0.58427320225265    0.25994094328427
N           0.52210252262088    1.90688796011108   -2.33982599783624
H          -0.19162253722766    2.39247460158851   -2.86888360171657
H           0.24113002510926    0.92950519121504   -2.27463053966491
H           1.37767457897637    1.93964867959947   -2.88057983193636
