    23
        -45.37583679  Gyration_radius:  2.28628751277 Dipole_moment: 1.600
 S          -1.54656918094284   -0.55231077824065   -0.05981701615693
O          -1.27704941756427    0.05795566685302    1.22772793837965
O          -1.30785905863384    0.36028333893789   -1.17205218361788
O          -0.84573239704658   -1.81163085733011   -0.21524705608941
O          -3.09729793494941   -0.86970238361980   -0.10941596577136
H          -3.20490650741231   -1.54131976016188    0.55661605208785
O           1.12160970754138   -1.56919031353109    1.72579391671219
H           0.27601569326711   -1.63234328135689    1.25412426399068
O          -0.91680728772547    2.92657525845494   -0.43753551043337
H          -1.71784566976055    3.29552353139970   -0.06301403927420
H          -1.15856391225189    2.03899556578940   -0.76829841806496
O           1.79350234074726   -2.19012127482437   -0.82550075450032
H           0.83956733613346   -2.37755187891269   -0.85421406957398
H           1.66543447847642   -0.63713418350344   -1.08834913805067
H           1.99168062826102   -2.20500280157319    0.12572143412239
O           0.87017038300472    1.59082000649213    1.10182480317318
H           0.09942298060139    1.01999503935430    1.31811727674068
H           1.07209813225633   -0.77135942683251    2.25599612346877
H           0.44918851022582    2.37741358599914    0.71024741220830
N           1.33877495334598    0.37679518764516   -1.17485208887538
H           1.86593250655507    0.88809936647531   -1.87508780459600
H           1.37209976069778    0.86834535273457   -0.22469298771578
H           0.31713397521192    0.35686502975318   -1.40809216815665
