    23
        -45.36655845  Gyration_radius:  2.28267632405 Dipole_moment: 2.032
 S          -0.50803897603810   -1.36474475098267    0.92517888502534
O          -1.75603504792113   -0.90890598766398    1.53430783651719
O          -0.59869384265148   -1.30047701946316   -0.53047743216320
O           0.66432411840477   -0.69437858647638    1.43338577467397
O          -0.37475336722299   -2.88677713311551    1.31463583393828
H          -1.26925318792622   -3.19601442678859    1.21636352093773
O           0.21978976721633    1.82396260568385    0.72391469275681
H           0.49656030146085    1.01887920567403    1.20975375075577
O          -2.12538392041325    0.49106451748738   -1.75284966186937
H          -1.69133896397959   -0.32793438862816   -1.42885553081890
H          -1.44902306571149    0.94745496253213   -2.26466428581023
O           0.85986532299206    0.73451306376632   -1.56052360225873
H           0.50577724283065    1.62982648334018   -0.21320543771093
H           1.79752645429770    0.55392164465639   -1.33502576607865
H           0.40914629543853   -0.09338839054152   -1.30879804679829
O          -2.21179171299984    1.37610319669820    0.63241463232779
H          -2.33156952137818    1.14191840460954   -0.36003687761290
H          -2.15909399917441    0.45370857238446    1.09905754808888
H          -1.18185452871903    1.72109115222739    0.71174596718856
N           3.05167341219037   -0.15355392093574   -0.22609650206351
H           3.70041850175857    0.46806472003700    0.24102457551655
H           3.57373285201070   -0.96543155921286   -0.53171173993468
H           2.37801585568822   -0.46890236530079    0.47046188550780
