    23
        -45.36655824  Gyration_radius:  2.28250753325 Dipole_moment: 2.042
 S          -1.63349279479494   -0.55008117272386    0.06931169961451
O          -1.61856211098363   -1.74779408618451   -0.76815057716943
O          -0.68896096737852   -0.68950100686376    1.17376124784685
O          -1.44162668670466    0.67558938158938   -0.66751997244109
O          -3.07732744452214   -0.48799284105377    0.69975720434861
H          -3.23959107189005   -1.40036714690406    0.91585009042158
O           0.99294719474040    0.34755134680462   -1.67196382497811
H           0.05305563896678    0.59605254919840   -1.54725589356740
O           1.51010855609037   -2.15541271254772    0.95039094938195
H           2.16861748080244   -1.47265380300269    1.11777777833764
H           0.65469683102092   -1.75689192406872    1.22150564656121
O           0.74966816461047   -2.10706742367598   -1.47854714720211
H          -0.26620233320372   -2.08950214779939   -1.28079825870238
H           0.95057525057890   -1.05721363788901   -1.68733903356693
H           1.17540731245715   -2.27514978222439   -0.55946265106035
O           1.51684939432133    0.84299767751653    0.83701388284322
H           1.40710746852652    0.58840055507900   -0.79551167390735
H           1.21438186077913    1.77644855967680    0.82836326665644
H           0.71854143653470    0.35564868379382    1.11503521378240
N          -0.05235815067697    3.02712536511110    0.46597425332312
H          -0.71269248290325    2.36270997641647    0.06469888095778
H           0.13720199455857    3.72800628040464   -0.23992244449367
H          -0.51834454098792    3.48909730937580    1.23703136288965
