    23
        -45.38252913  Gyration_radius:  2.27578292996 Dipole_moment: 2.963
 S          -1.59695686175603   -0.87049736144923   -0.57954232747454
O          -0.86412786774539   -1.55017925257008    0.46557614002343
O          -1.69725138101595    0.56865595365299   -0.35549750087361
O          -1.09928861764286   -1.16238301803508   -1.91731575482750
O          -3.07584142590952   -1.43517806018050   -0.52291151967432
H          -3.47766182891452   -1.07308474027403   -1.30652248251143
O           1.32803190920042    1.18533798860601    1.78188558348310
H           1.69928374063896    1.64862956735459    2.53352824397063
O           0.54114331796898    1.99394575882971   -0.73668631460696
H          -0.37230928132760    1.65067449126721   -0.65666807005265
H           0.91680872576695    1.90813144618567    0.15795946666343
O           1.79928985482410   -1.24962739532052    0.56623424200678
H           1.82294716523955   -0.43387795731468    1.09778313824529
H           0.87365206278991   -1.56010701970069    0.62689876554737
H           1.71650512029543   -0.73526696983251   -0.93805398345963
O          -1.15002469198634    0.44702971305206    2.22942406783567
H          -1.52549201411283    0.74482842369221    1.37914036668574
H          -1.08342459969889   -0.50940769154163    2.09515707663024
H           0.39389643536164    0.94230263628456    2.03504717246307
N           1.34236220011102   -0.25257760274526   -1.81174576852057
H           1.96637463051907   -0.33293490462778   -2.60631008715636
H           1.14871562142402    0.75829097279123   -1.53287596588786
H           0.39336779596790   -0.68270496812520   -2.00450448850780
