    23
        -45.38134563  Gyration_radius:  2.27246776847 Dipole_moment: 3.510
 S           1.02176238967710    1.42701045221829    0.08667041213788
O           0.37626795767121    1.65766316180020    1.37106029302900
O           1.86169629421335    0.23030034802546    0.13530450906665
O           0.09866310008489    1.42293158665110   -1.02182810688196
O           2.00453084839097    2.64496962609810   -0.14850116747929
H           2.53812298098156    2.63954527065758    0.63955919614949
O           1.74416854185742   -1.86753731724137   -1.51180976753249
H           1.90096577954612   -1.05671267195343   -0.98651112823407
O          -2.12470919103844    1.54022957531506    0.59474335374899
H          -1.25102219810206    1.68194919363275    1.02696303833938
H          -1.97976233814832    1.86157154816181   -0.30177809868783
O           0.37705746904325   -1.06076573733319    1.86656363587490
H           0.20570619675025   -0.31718139406562    2.45421609417635
H           2.01768411906080   -2.59901410801377   -0.95602272890313
H           1.03205902269345   -0.69276594749382    1.23071859950170
O          -0.70842172933811   -0.90666328124789   -2.04892247352545
H          -1.41389485991127   -1.12631109365845   -0.69956046254116
H          -0.42981148465211    0.01890292823810   -1.89345294834743
H           0.13158209869042   -1.40768661965480   -2.04889280685526
N          -1.78802513948070   -1.07078855968004    0.31116253494855
H          -2.09443964394191   -0.06491777191358    0.45659210148423
H          -0.97670583919206   -1.22911371363081    0.96633143524481
H          -2.54347436491440   -1.72561545490425    0.47739449555033
