    23
        -45.38252918  Gyration_radius:  2.27571732826 Dipole_moment: 2.964
 S          -1.61118074234851   -0.73787230777266   -0.70940537232381
O          -0.45152735781388   -1.59894173583569   -0.78093346646350
O          -1.73008566231030   -0.05494943116433    0.57547290877635
O          -1.70024021636496    0.20404590054975   -1.81716969841309
O          -2.87456362124937   -1.68582581272994   -0.82943836015014
H          -3.59926037078120   -1.07401889093144   -0.91498881509316
O           1.84962496159308   -0.01087391416474    1.70956641465504
H           2.46384500405754   -0.11277034266805    2.43737116203853
O           0.00812958221460    1.93297522046340    1.03801850448084
H          -0.75321720777880    1.31893162350343    0.99334301266575
H           0.73182504665345    1.40250915572479    1.41693422275424
O           1.96858091495302   -0.46590901469990   -1.01169867532931
H           1.18521506539568   -1.05116488353363   -1.03859359545129
H           1.21644370407747    0.86174468009590   -1.46456503290371
H           2.14468093901463   -0.33027146249644   -0.06342770338554
O          -0.13646742430633   -1.71774046569144    1.87672192932721
H           1.13361837066658   -0.69183840644019    1.84927475725255
H          -0.85939878696480   -1.08827758840245    1.69362697483827
H          -0.05278755469469   -2.17835232147387    1.02922799720255
N           0.46909067220673    1.62002724793114   -1.51844108215294
H           0.70380331101167    2.36220274964764   -2.16746605288386
H           0.32576172172748    1.96741890228984   -0.52063442599763
H          -0.43189035895835    1.12895109779816   -1.78279560344409
