    23
        -45.38134566  Gyration_radius:  2.27238827415 Dipole_moment: 3.508
 S          -1.53863327501462   -0.81807405002015    0.22878978561349
O          -0.71005888465398   -1.01225435922469    1.41866812073270
O          -2.11036438519634    0.52065425716424    0.21024107987832
O          -0.85739591812170   -1.16327256702552   -0.99499489252947
O          -2.75249497303814   -1.82393960196056    0.36908344726009
H          -3.20093136334448   -1.50510946141199    1.14564497319183
O           1.83909015459647   -1.80332294477534    1.47256750999764
H           0.87266812855556   -1.64898464962249    1.48774604747436
O          -1.08319690930030    1.36941001730705   -2.04695364137911
H          -1.59641997264480    1.17908538625891   -1.22800511035880
H          -1.03444896826358    0.50975876443706   -2.47906767678586
O           1.80784255748211   -1.02418173028665   -1.10025756763918
H           0.86243782633439   -1.25545741861874   -1.20620496165441
H           1.61980023002190    0.49454936792430   -0.94300941287187
H           2.04531076294523   -1.40099546445630   -0.22953742297355
O           0.07845632245764    1.48077583219262    1.59720682252681
H           2.18780956577879   -1.37008850121450    2.25328117719997
H          -0.77429302258966    1.88899177507666    1.41348407893008
H          -0.14453437459779    0.52436629154103    1.66268087599349
N           1.24830506723958    1.49742969817376   -0.79839926419280
H           0.92324925848039    1.58196459005344    0.20142716014517
H           0.37813354855052    1.57847294587747   -1.40092437839072
H           1.93966864433232    2.20022183257651   -1.03346672030374
