    23
        -45.38252915  Gyration_radius:  2.2757047019 Dipole_moment: 2.969
 S          -1.81795064658431   -0.30037489645578   -0.49810433362655
O          -1.18206694965694   -1.38644554985687    0.21442591653363
O          -1.52086220588763    1.00662321474832    0.08032717860411
O          -1.55194962070733   -0.31593470667931   -1.93037174923181
O          -3.37858344178859   -0.51689590691441   -0.33385883665944
H          -3.75186875634346    0.12920246566196   -0.92545147470885
O           1.76404382141490    0.32189759251349    1.76901275347239
H           2.31661170324944    0.46707503247298    2.53777255988329
O           0.95892114678235    1.94760364641337   -0.31008192123990
H           0.00087006147080    1.80694560687122   -0.16503725552549
H           1.38885399563990    1.53634431127884    0.46129166736549
O           1.46461875477315   -1.72431334281729   -0.06279527943966
H           1.36368464800086   -0.80914183331117   -1.36187532583954
H           1.75275774610265   -1.11409044780890    0.63933756630849
H           0.50159965780724   -1.82636290329209    0.07484177225230
O          -0.76148782819594    0.05699851053392    2.43028485406639
H           0.82981694353763    0.23069817120857    2.10783019091680
H          -1.13277975740803    0.65835866199535    1.75754723671376
H          -0.95762548588268   -0.81228531480491    2.05140108473397
N           1.03892346424209   -0.03352936541521   -2.01691525171678
H          -0.00355121159695   -0.17270521434553   -2.14650758833825
H           1.53572712548177   -0.02734776305011   -2.90025928095536
H           1.14229685554807    0.87768005105444   -1.47281446356820
