    23
        -45.38252846  Gyration_radius:  2.27575534738 Dipole_moment: 2.975
 S          -1.50951927549072   -1.02733481883857   -0.55527194081066
O          -0.80125413959500   -1.71872057810922   -1.62441551357133
O          -0.95192311384326   -1.36277089648659    0.75147132551030
O          -1.61770612515478    0.39900996521506   -0.76826053628481
O          -2.98985371114401   -1.59087429771193   -0.56837626124291
H          -2.86351389607797   -2.53443175971194   -0.59001593736315
O           1.04021651839078    1.72820029680916    1.50928530119733
H           1.30811100600710    2.37221990585068    2.16569534883755
O           0.62556330266632    1.79886292486342   -1.21967679818407
H          -0.28865477363443    1.45333529569957   -1.18020735283590
H           0.86724783716143    1.96854468704882   -0.29150633853954
O           1.67188478949177   -0.92468199697096    1.08018692954933
H           0.74448409224746   -1.23831996453118    1.09956408431294
H           1.81615005122398   -0.83322500680522   -0.50129518628137
H           1.62471735453539    0.00425094382615    1.36926521160605
O          -1.45797743593105    0.99571832608130    1.83807524896058
H          -1.82993812906086    1.22505632846982    0.97401944542055
H          -1.32065798778533    0.03369599091241    1.74943740975586
H           0.08695939376259    1.50724168973055    1.70529065988306
N           1.56493789997900   -0.62731026509103   -1.51695084457338
H           1.32690749119618    0.41094688760977   -1.55940884255388
H           0.65926956015347   -1.14634923500996   -1.69865210144458
H           2.29454929090346   -0.89306445285355   -2.16825331134786
