    23
        -45.38252894  Gyration_radius:  2.27574865033 Dipole_moment: 2.967
 S          -1.54200213155061   -0.58088346531831   -0.96304710009254
O          -0.80397636377877   -1.46315345452543   -1.85714782381844
O          -1.44487760526167   -1.03088473464351    0.42239499969428
O          -1.19981515234521    0.81495411868371   -1.12361278610925
O          -3.06725669110781   -0.71271824410998   -1.36990305213862
H          -3.20489000645309   -1.65457405344012   -1.39731249765899
O           1.05804716092592    1.40320160305488    1.80461579139979
H           1.31661608437112    1.95577477289707    2.54293515269113
O           1.37824356749935    1.53079563365026   -0.93595021767463
H           1.41629544256437    1.64686397777888    0.03025882381082
H           0.42496840769806    1.45194797481316   -1.14051339599487
O           1.02903004859186   -1.32787283902745    1.41086253205822
H           0.07739507540119   -1.37297997002450    1.18478578224333
H           1.58544709331134   -1.31258120534702   -0.07883897650048
H           1.16552357417718   -0.41589526167562    1.72497645284274
O          -1.54449650016191    1.39634029238855    1.46934432411674
H          -1.65581955610950    0.43248075553810    1.36468158042556
H           0.06324062284066    1.45856930000553    1.74740883064055
H          -1.61223383411730    1.70641669091599    0.55479296565765
N           1.66392434324715   -1.06634669928944   -1.11346977553033
H           2.43277814598899   -1.53716417992636   -1.57645939026976
H           1.73683029690685   -0.00399177104427   -1.16128742129022
H           0.72702797736069   -1.31829924135460   -1.53951481850267
