    23
        -45.38252866  Gyration_radius:  2.27568901956 Dipole_moment: 2.975
 S           0.74687678923562   -0.74196170587262    1.59184034924796
O           0.71158508196535    0.71562880061770    1.51999789346453
O          -0.51637828007150   -1.27624072485819    2.08311143476311
O           1.18655345735686   -1.35326388699602    0.35705474025572
O           1.83703384360073   -1.11011003897663    2.68060911122551
H           1.43462118895932   -0.82959409653955    3.49677248429069
O           0.26683172784889    1.25048735302092   -2.17069512186832
H           0.50800163472902    1.76142825130281   -2.94413979414415
O          -0.49536190817977   -1.36724960605943   -1.73233319921136
H           0.19825578863196   -1.55213572869978   -1.06783557345809
H          -0.26312475391540   -0.49468111417574   -2.09756129055398
O          -1.26238563259983    1.79400736998636    0.06163515719490
H          -0.81757468657402    1.78755575177800   -0.80491563216132
H          -2.01793601620398    0.39555200593583    0.12117071772820
H          -0.55677689944762    1.57800467618921    0.70514964635998
O           2.31808910333689    0.88737105364522   -0.57522097022495
H           1.87007979887153    1.11415331393785    0.26143104586334
H           2.34454955195287   -0.07968424976982   -0.53165082936464
H           1.09708758478900    1.15945263182917   -1.62445830892525
N          -2.16408967986121   -0.66006670508372    0.15782217894486
H          -3.14155410802565   -0.92448374259246    0.20032955005282
H          -1.62297572611317   -0.99492609828446    1.00508778124612
H          -1.66140786028519   -1.05924351033543   -0.69320136072557
