    23
        -45.38134558  Gyration_radius:  2.27231622072 Dipole_moment: 3.510
 S           1.11127399744820   -1.35269389547865   -0.15873749471241
O           0.71874498485862   -1.67266324153819    1.20610962865749
O          -0.00948983288460   -1.54274757263359   -1.07948469378977
O           1.73005138700911   -0.05565377298568   -0.28395283471366
O           2.20655196098985   -2.41733673840808   -0.57356449649379
H           1.76916141395618   -3.24532139333827   -0.40347897676658
O          -0.99639299080157    0.26192555105576   -2.78151327576940
H          -0.56814744044012   -0.45600935306130   -2.27248432555558
O           1.19554465759134    0.65149594041818    2.32062248324894
H           1.03543526211264   -0.28814099135548    2.07228617819410
H           1.90882825188135    0.91506021359022    1.72913186557303
O           0.29403919315613    2.00490796141222   -1.19284979466380
H          -0.51413779171069    1.86620357023252    0.10864835782552
H           0.99409779092478    1.35675052728547   -0.97309669015704
H          -0.20444108227716    1.57552769815306   -1.91656971737084
O          -1.87504557122936   -0.90123426472423    0.64585787211136
H          -1.92565589290433    0.03219803715383   -2.83116293372472
H          -1.28964605379679   -1.17720862072094   -0.09570345734347
H          -1.51451038550093   -1.38488656596100    1.39663179837186
N          -0.94224135818837    1.56314527216771    1.05188495583012
H          -1.46770658804015    0.66222545860264    0.89475814012796
H          -1.53298784806963    2.28198688549640    1.45364837515078
H          -0.12332604417272    1.32246928462460    1.68301904579813
