    23
        -45.36239526  Gyration_radius:  2.3331255071 Dipole_moment: 2.084
 S          -0.18337090043176    0.01755660422713   -1.77434043849008
O          -0.96402853051815    1.04412746457585   -2.39965415157552
O           0.96335830509603    0.53176669025773   -1.01796229285805
O          -0.93592967304472   -0.93164684288616   -0.96515869756319
O           0.44245350453380   -0.84550809573741   -2.95904197141747
H           0.18336035590252   -0.36016384084799   -3.73549682328586
O           0.70888046075579   -0.16290212450851    2.64622477009150
H           0.99708888772841    0.68294213520588    2.99260169921969
O           0.37699826390903   -2.92323670180319    0.04673035226292
H          -0.15808919319859   -3.23330295963735    0.78134240555080
H          -0.18852246494347   -2.28380296504946   -0.45590644003947
O           1.95115295759790   -1.01558239100776    0.63235390478097
H           1.45396092100494   -1.88882759556786    0.42363754355569
H           1.60178436459794   -0.33923599332128   -0.11196185168468
H           1.52170282298242   -0.66487189325677    1.51954046327963
O          -1.45624180712459    0.32696335997583    1.36272783635438
H          -0.19477508410681    0.00155268427789    2.21546438385702
H          -1.35663747912972    1.24831044508677    1.01885235323496
H          -1.42859188582916   -0.22043155037143    0.55814950281662
N          -0.91657728954421    2.59179685259233    0.02031029467957
H          -1.42774288716395    3.46651253520403    0.01935868931654
H          -1.06163956598935    2.14722463580222   -0.88497634902854
H           0.07140589669086    2.81075955681039    0.06720480700732
