    23
        -45.36239548  Gyration_radius:  2.33310650811 Dipole_moment: 2.079
 S          -1.25167396128147   -0.60313542427251   -1.11941784284769
O          -1.11559924363445   -1.90429307332715   -1.70486151691122
O          -1.31922981109041   -0.62319127343251    0.34572035382116
O          -0.27871978957321    0.38513754030815   -1.56532089867760
O          -2.66525349679162   -0.04703832833433   -1.60149970153837
H          -3.03836160454762   -0.78905140208324   -2.06580559450727
O           1.57724893133919    1.11008478327787    1.95200103581421
H           1.77134329873076    0.48612277220938    2.65307511251904
O          -0.56911579536491    2.80791166513268   -0.69362423180713
H           0.29205593317642    3.22002817441779   -0.79686394048955
H          -0.52304287640660    1.94684885186133   -1.18123330253450
O           2.00068245760217   -0.16408735416630   -0.23251175006220
H           1.79034484133854   -1.10869032422794   -0.03128926559745
H           1.29346411779383    0.10069213413092   -0.84691730656723
H           1.82987733759813    0.64810787827208    1.08483280201405
O          -0.85858418193046    1.52088195605180    1.47899301762496
H          -1.12902330341359    0.59263764607780    1.03302610981840
H           0.13782853035230    1.38597999856700    1.76803156325179
H          -0.81967320189431    2.17191768697734    0.68663393938448
N           0.91581212459861   -2.58278682361042    0.20997950778002
H           0.36249767757001   -2.57802373890559    1.05855661524238
H           1.34454189761226   -3.49679008473666    0.12508530888353
H           0.25258011919978   -2.47926325030942   -0.55659000469411
