    23
        -45.38134554  Gyration_radius:  2.27242938655 Dipole_moment: 3.517
 S          -1.42822516305948   -1.02331527693126    0.03095360547908
O          -0.66406482758631   -1.22288872368152    1.26235435942802
O          -2.17003237005839    0.22830074642017    0.08063113443821
O          -0.62585608937167   -1.16271541763638   -1.15962883343899
O          -2.50417343831868   -2.18326849729829   -0.01138505071309
H          -3.04132855726175   -1.99993588037860    0.75257766286830
O           1.95650254297570   -1.69262067720858    1.45838231735383
H           0.97944763381794   -1.66219705165377    1.40810378967915
O          -1.10988181394313    1.41096954839317   -2.00452628145965
H          -0.91710543672627    0.60939082077692   -2.50282662485011
H          -1.64937472059207    1.08065020066099   -1.24951349561675
O           1.99768796934213   -0.67901076066761   -1.03107596002900
H           1.10116111245084   -1.01612852314997   -1.23375929020866
H           1.60050320406493    0.78229855538503   -0.76130168949819
H           2.22207578048498   -1.10524686781117   -0.17974745395210
O          -0.23108494187645    1.32102329257622    1.71862681057568
H          -0.32836538020790    0.34219656942039    1.68290971319337
H           2.19027559480887   -1.29066570123908    2.29651401158497
H          -1.11577538937603    1.63382733398381    1.50174885498339
N           1.09054269057595    1.71263099415238   -0.56316903314277
H           1.69774761464670    2.51555041423695   -0.68030178096130
H           0.68765381041085    1.66061734669974    0.41027668934706
H           0.26167017472341    1.74053754503952   -1.22584345504338
