    23
        -45.36239542  Gyration_radius:  2.33313124227 Dipole_moment: 2.081
 S          -0.17280342864347   -0.10756032492494    1.77275387876805
O           0.02341342395296    1.12037767554148    0.99482957492327
O          -1.47808282359485   -0.21508379734220    2.35505875189940
O           0.26364401641114   -1.26563673176125    1.00423742416275
O           0.84783602357950   -0.00459594536446    2.99245836500440
H           0.27100159036530    0.04301794679727    3.74781600635220
O           0.60288501529848    0.45681215012256   -2.63808284031103
H           0.04930259114090    1.13991335421511   -3.01940611094986
O           2.68040598135733   -1.22469188527338    0.07059435362161
H           1.82241282182507   -1.35606709487832    0.54803092056889
H           2.68469152366018   -1.85850672152467   -0.65078362259146
O           1.91407726414041    1.10617726063351   -0.59234890321648
H           2.38499079205990    0.22752272010240   -0.34819499083198
H           1.41980629482734    0.90731094225787   -1.49269456100680
H           1.13044197149743    1.18278350838871    0.12429011446517
O          -0.99977408455966   -1.09381164464555   -1.37236352037822
H          -0.54839537666265   -1.34137597193264   -0.54609253159275
H          -1.74033553440766   -0.51482480832753   -1.06677976842576
H          -0.02854259659287   -0.21388925775216   -2.21306927133123
N          -2.68102252083193    0.59185659427853   -0.12555952904137
H          -3.69300447334334    0.62427504249973   -0.16131494304964
H          -2.33872212161789    1.54374883275006   -0.18071371555000
H          -2.41422633973235    0.25224817598659    0.79733490861816
