    23
        -45.36239542  Gyration_radius:  2.33306540489 Dipole_moment: 2.082
 S          -0.85663602591261   -1.44773943883558   -0.59582867210282
O          -0.11373439875117   -2.52174326112900   -1.18646078252529
O          -0.48499959560432   -1.17382078154321    0.79649783619347
O          -0.87981704056738   -0.21002701532028   -1.36369119485470
O          -2.37272258963659   -1.93602515998991   -0.54194134080321
H          -2.31577497127387   -2.83860232467264   -0.83764062513973
O           1.01347689113909    2.21965977022276    1.25504759388078
H           1.73825870604844    1.99872654610952    1.84189737863476
O          -2.35040899865035    1.71956328704349   -0.45330850125767
H          -1.91937004220892    0.96098733967411   -0.92235050254248
H          -2.00244886199118    2.51728646259864   -0.85911290911364
O           1.50387398755196    0.97562942128420   -0.93283288004165
H           1.24283364898761    1.80914689299804    0.35609495462905
H           1.99138024675653    0.15805008457684   -0.66667383914600
H           0.64971521483830    0.63675441238546   -1.25433517601328
O          -1.15986308624495    1.02863972392942    1.68354033244873
H          -0.26456179850052    1.56314060711633    1.59755036521898
H          -1.75551763206118    1.38479130128640    0.92761364401535
H          -0.90744315466592    0.04395757950153    1.36654468215177
N           2.33082393537000   -1.45006769877733   -0.12325851365166
H           2.15793219585794   -1.57532895848736    0.86703728584098
H           3.18829514789329   -1.93875248682849   -0.35206498065331
H           1.56670822214036   -1.92422633288683   -0.60232413505278
