    23
        -45.37910996  Gyration_radius:  2.28554387436 Dipole_moment: 4.307
 S           0.23390362508137   -0.64125102627812   -1.81118517763195
O          -0.87054729724859   -1.27160193298614   -1.10056512548702
O          -0.12353386311764    0.64141543203978   -2.37223387426364
O           1.44244464624065   -0.58985215619355   -0.99254702779877
O           0.59499667794043   -1.58705980633118   -3.03058733242985
H          -0.06713846354136   -1.35643267783801   -3.67434461452121
O          -0.04957222855469   -0.30614407444693    2.50423194764491
H          -0.09985539437210   -0.59562494314849    3.41560783693195
O          -0.82469355369822    2.41244838804274   -0.52703045252746
H          -0.63873678337408    1.93634457375448   -1.36455647055789
H           0.36322989025697    1.94700075122682    0.25610712993589
O           0.49645176035067   -2.29384126144332    0.89430791390861
H          -0.18077880038622   -2.12031017782885    0.20705392479219
H           1.31195967366414   -2.03512674929127    0.44700136094459
H           0.14635618766838   -1.12053860464468    1.95862695705778
O          -2.10233056120572    0.39960351330258    0.63192722510986
H          -1.52024810585443    1.86430411513671   -0.09417835220587
H          -1.82768544329302   -0.24979285991883   -0.04184506433436
H          -1.60289216489244    0.17238487405866    1.42791544886459
N           1.16250900680988    1.36372169347418    0.72684559112075
H           1.40122975885404    0.60956067022220    0.02159865342672
H           0.78262410565955    0.89006701960585    1.56675243255267
H           1.97230731701767    1.93072524948334    0.95109706946885
