    23
        -45.37910961  Gyration_radius:  2.28561492728 Dipole_moment: 4.308
 S           0.11956424532414    0.70781635420210    1.79747976041224
O           1.37769061743280    0.18268743583059    1.28442026458850
O          -0.14767256744874    2.05473901537743    1.34784572680802
O          -0.98948055137526   -0.20904253420849    1.54620440390659
O           0.25783464396459    0.77398747816391    3.37502378560882
H           0.73849671756040    1.58486289575915    3.50719736112098
O           0.14422629039825   -1.86276192737313   -1.69720457852062
H           0.30841696529029   -2.64785901058693   -2.22033245877452
O          -0.37482943403539    2.22950175590612   -1.28868176396045
H          -0.30547805341743    2.41137717581856   -0.32698516480685
H          -1.22574736363020    1.00028354357400   -1.21735429271806
O           1.66911276737277    0.54412266880221   -1.37920438523706
H           1.73717624447997    0.47182670851366   -0.40900440933776
H           1.31804985607852   -0.30592015752374   -1.67723980143379
H           0.48799901938531    1.80815624429619   -1.51160207190660
O           0.60560096382077   -2.28746305455447    0.84219753028898
H           1.13697589619965   -1.48618371556669    1.03358920763156
H          -0.22945092922131   -2.08857233022168    1.28397273996231
H           0.35591650139040   -2.10366570196048   -0.75042254909470
N          -1.67271576333779    0.03103807605206   -0.96886051285860
H          -1.52383465867172   -0.07797085188172    0.07480739288365
H          -1.13130581285848   -0.71857123884975   -1.43669741517279
H          -2.65654558470931   -0.01238882956230   -1.20914875938596
