    23
        -45.38134559  Gyration_radius:  2.2724207973 Dipole_moment: 3.504
 S          -1.72893065448179   -0.14876845078085    0.27662475392606
O          -1.03141495040528   -0.20546595458747    1.56119425945625
O          -1.79867534216112    1.22021654141585   -0.21368994535397
O          -1.19881606520005   -1.07479386297846   -0.69418142723873
O          -3.21844473744532   -0.60003536730311    0.56445233805873
H          -3.53556819515928    0.08175094002667    1.14788576304948
O           1.08074632047165   -1.72548747273478    2.15812282854221
H           0.22917403006551   -1.26674990237927    2.00875499808585
O          -0.51926405583813    0.90508018243702   -2.47981560221845
H          -0.76854988988998   -0.01452315291330   -2.62238699795341
H          -1.07435133360834    1.17014974351669   -1.71049105783839
O           1.34875513120240   -1.85625029507740   -0.51392448981695
H           1.69994289473250   -0.39524552536517   -0.84485583710347
H           1.43225183572569   -1.98655974254919    0.45168952056895
H           0.38296749966219   -1.78689083367709   -0.65873903814872
O           0.57439326197767    1.80753703696295    1.07386004190667
H           1.54938454526429   -1.20557908260550    2.81296665252067
H          -0.08153075006259    2.38804594929142    0.67344768103143
H           0.03215437116184    1.05258104449795    1.39751325721750
N           1.69938130470483    0.66323525955168   -1.05492559307826
H           2.59434973391598    0.98531603735885   -1.40482728245277
H           1.41456417675735    1.16864448177135   -0.17398269816848
H           0.91748084843093    0.82379240619299   -1.75469212520298
