    23
        -45.37910925  Gyration_radius:  2.28564877461 Dipole_moment: 4.320
 S           0.38547428430860    0.94170035339109   -1.64620738690087
O           0.68658403587353   -0.28583476960231   -2.34644441387656
O          -1.00803548285262    1.02461882225173   -1.23036516859160
O           1.29612756015571    1.20351081741359   -0.53457279466649
O           0.63004486273359    2.12291440488400   -2.67428607174419
H           0.29484456306777    1.76148402552751   -3.48853674807659
O          -0.74554707408511   -0.10245133786803    2.40943295951085
H          -1.10888275007983    0.01449616079989    3.28766763141073
O           0.30575346828278   -2.44162264148092   -0.84895171178216
H           0.48516076030496   -1.81242376751334   -1.58011348464313
H           1.00719070253139   -1.70491710153036    0.24955092625155
O          -1.87617387283442   -1.21095242847391    0.01871951006887
H          -0.62658619370771   -2.24761646108280   -0.59470741501227
H          -1.70290267716978   -0.94060388705224    0.93056016385100
H          -1.72162771741326   -0.41455279524520   -0.52253088914021
O          -0.63969814925965    2.16282757634349    1.10629553856102
H           0.29257579813148    2.27959817288431    0.88449353904073
H          -1.01930712327385    1.86256524324272    0.25374704419792
H          -0.75386648447605    0.79895534240763    1.97724981303590
N           1.38921183240295   -0.95165732277206    0.94754997266091
H           2.27749843145510   -1.21999776070133    1.35561296715253
H           0.67258410888428   -0.77310121113663    1.67475050175925
H           1.47957711701816   -0.06693941467958    0.37108552692888
