    23
        -45.37910990  Gyration_radius:  2.28553725824 Dipole_moment: 4.306
 S           0.25755767819567    1.62919350855336   -1.01271259285066
O           1.62730317020662    1.75537274687732   -0.57033640425992
O           0.03994621167630    0.44918869868903   -1.83876941372732
O          -0.70577251764894    1.70567523568038    0.08250667435754
O          -0.04454537337895    2.89017384842080   -1.92402906035240
H           0.76165955649412    2.98372649349912   -2.42132942937769
O          -1.35781106919147   -1.99121733642971    0.74714675476781
H          -1.96332866000533   -2.72174619509745    0.87611771957758
O           2.40917372344186   -0.27405061943095    0.94725906958489
H           1.10004277633584   -0.14044226570389    1.66067598253014
H           2.35876533192713    0.54078643885393    0.40301263813394
O           1.07453221403595   -1.80312476598761   -0.75777321746283
H           2.16970886474297   -0.99323375157731    0.31709258329140
H           0.28462178152661   -2.11422366502971   -0.29521623857066
H           0.77754691941153   -1.05073830247733   -1.30259456091003
O          -2.32583304984280   -0.22494239134011   -0.92134159027776
H          -2.35063728243240    0.60139586656548   -0.42275515035641
H          -1.53367462581580   -0.10264831969399   -1.48585079772529
H          -1.79306441600353   -1.37462188137727    0.09162924352197
N           0.05016866579015    0.01580703648170    1.93299720546919
H          -0.48658553362515   -0.84149860314949    1.70719339542271
H          -0.28951039695880    0.77994278424583    1.28201079805625
H          -0.06026394889359    0.28122546943349    2.90506639117624
