    23
        -45.37910961  Gyration_radius:  2.28566155768 Dipole_moment: 4.313
 S          -0.91062564956427   -1.69785611937539   -0.18788096622522
O          -1.58666280244471   -0.58926345805679   -0.84804275941985
O           0.16166102484031   -2.25090354051749   -0.98297304561634
O          -0.49372779778077   -1.34470845315720    1.16679342318628
O          -1.98410154498709   -2.85000751540373   -0.00825058067548
H          -1.98904692701939   -3.26338347859705   -0.86564893260960
O           0.15475203079033    2.39373225711511    0.78558926985682
H           0.03298225039263    3.29591295262816    1.08272069380509
O           2.08580259445854   -0.49349198698908   -1.47581733535640
H           1.99313471047424   -0.10679259324137   -0.03260343823912
H           1.50521432430970   -1.28400045803747   -1.44944928515333
O          -1.96364565028491    0.93379329626274    1.25704458393829
H          -0.69728585426553    1.91156768749078    0.98749895055180
H          -2.04332617809636    0.49867892375151    0.38211931241070
H          -1.64972400394994    0.21194522815254    1.81591594802910
O           0.12498291240042    1.25199193202049   -1.84380457579392
H           1.51097665307528    0.20817617760147   -1.86167736230626
H          -0.57717586468176    0.60475462452783   -1.64577751424015
H           0.14127098519281    1.85442799494258   -1.08784749283667
N           1.65928448835915    0.13210738614157    0.98334193993389
H           2.39387415976472    0.00423970267436    1.67007136297114
H           0.84359378703933   -0.52040220905981    1.16254751342003
H           1.28779237198215    1.09948166912990    0.99613031037805
