    23
        -45.35869088  Gyration_radius:  2.35924720662 Dipole_moment: 4.226
 S          -1.60092494548386   -0.81318548557393   -0.81851499846083
O          -2.30812823470321   -0.22652607103742    0.33182921808873
O          -0.94006794778459    0.24199652523388   -1.58380961567643
O          -0.73524992000082   -1.89707636073418   -0.46093777372910
O          -2.74370771030990   -1.38954892965231   -1.74379217792222
H          -3.34576534583270   -0.65407431580881   -1.77731554700838
O           0.98689898110209   -0.46939086083044    2.58578137071217
H           0.63609991357254   -1.16813041016930    3.14131496885519
O          -0.06880260704677    2.31427394423201   -0.28700695882946
H          -0.36844096040716    1.55090472172885   -0.85029208807826
H          -0.61076367209839    3.06432230275316   -0.53829328839209
O           1.76130519955486   -1.68337033019024    0.49116188819260
H           1.37254968929466   -0.93794791550140    1.76026091051163
H           0.89544664529699   -1.97289588094311    0.14808777848717
H           2.06645605418462   -1.02650162634844   -0.17896656304234
O          -0.81731192929263    1.06862205917285    1.81611165267890
H          -0.41638584469316    1.67178264207790    1.10349198233207
H          -1.50049606108907    0.48019226410766    1.26277176177935
H          -0.04126858068683    0.42618426688838    2.16823449374275
N           2.01925811792399    0.17435376514147   -1.44884593882352
H           2.57919109797141    0.05293351156074   -2.28287287691075
H           2.13845091917218    1.12763832983151   -1.12827516151560
H           1.04165715114622    0.06544384428824   -1.71012301731209
