    23
        -45.37910894  Gyration_radius:  2.28590731659 Dipole_moment: 4.326
 S           1.15837123181705    1.39711795108740    0.67380415523759
O           2.32116492869268    0.82173037367585    0.03754420975655
O           0.16495668031079    1.86192708527102   -0.28480230359917
O           0.56562593101374    0.52123174594774    1.68116184561865
O           1.66115937486052    2.67153326847651    1.47068995101820
H           2.31101714166831    3.04077910059087    0.88133154116210
O          -2.25247981005702   -1.09438537636300   -0.32033725610904
H          -3.17234903721981   -1.34347000444664   -0.41408386929036
O           1.73891056868707   -1.31772225873935   -1.41772654473296
H           2.17794186771315   -0.55745607306125   -0.97958584981378
H           0.88574887944262   -1.76675255224971   -0.27267254153884
O          -0.40291815065206    0.03596279135075   -2.19692879890657
H           1.04226750805932   -0.89848323984524   -1.97500896646666
H          -1.16644291728856   -0.37954475215123   -1.77382290646561
H          -0.19209534104108    0.81340929067784   -1.64725831033865
O          -1.99507270861529    1.13756463468279    1.01901774832958
H          -2.24264719453251   -0.23217106567636    0.18534404350760
H          -1.44810205550941    0.91278209273130    1.78183384373053
H          -1.35499104926856    1.59091426247959    0.43053749599236
N           0.20829006569900   -1.82895937459032    0.58639335868943
H          -0.76990799374058   -1.78973775585462    0.24647352209525
H           0.38573597498128   -0.94156273692938    1.13810795916138
H           0.37581610498352   -2.65470739707192    1.14998766295836
