    23
        -45.37910943  Gyration_radius:  2.28555665049 Dipole_moment: 4.310
 S           0.63826068771429    0.69098548384717    1.69150101111840
O           2.01131828388285    0.68654890957035    1.24155183919698
O          -0.19426749893080    1.62694935421233    0.94818747542101
O           0.04590483581141   -0.64370057843010    1.73102781635600
O           0.65475874351406    1.18532177816755    3.19731669274382
H           1.31225835471430    1.87341244666936    3.18243311141074
O          -1.82358711266260   -0.71733659255737   -1.59131513478204
H          -2.62096264286903   -0.88541120701175   -2.09433740050420
O           2.25949986892734   -0.06321957293385   -1.29037193684747
H           1.29502991533609   -1.16400044729307   -0.97579786692880
H           2.40973488854771    0.26075819635428   -0.37649996531964
O          -2.37159581987513    0.16636469804162    0.80843436445735
H          -2.11820130586750   -0.37132186531384   -0.70078314341023
H          -1.95971851935752   -0.46955389201039    1.40695946021681
H          -1.74180211853014    0.91680067375338    0.83949307184434
O           0.09770923018368    1.40637950280788   -1.73103226785939
H          -0.62900415595193    0.79257177259484   -1.90346798477969
H           0.00298015573555    1.66574447427621   -0.79572205204094
H           1.62853012168370    0.59114637412287   -1.67155656375622
N           0.47484125064462   -1.77862442201509   -0.58812022516658
H           0.69196980358846   -2.76855078883774   -0.60928901758010
H          -0.38718251633074   -1.56443777104350   -1.12220578065456
H           0.32352557008970   -1.43682653696538    0.40359448689846
