    23
        -45.37890781  Gyration_radius:  2.28743235464 Dipole_moment: 2.690
 S          -0.11861355087134    0.60970985945477    1.54331073660920
O           1.18030115279773    0.25202599527165    2.05875357335933
O          -0.05278055833891    1.72969516897328    0.59946526658905
O          -0.85683613341596   -0.50250986086442    0.97240227000154
O          -0.96291982104875    1.12506539701749    2.78164445599966
H          -0.27547770561025    1.36220636309964    3.39530651252711
O           0.34656950809514   -2.80218644031639    0.24528797415211
H          -0.13299442819448   -2.07324047327785    0.68146821732603
O          -2.19466575260563    1.84538988269458   -1.01637906247040
H          -2.98387796925337    1.95935712213457   -0.48508471335493
H          -1.44024848982587    1.90618045360767   -0.39596888216722
O           2.43297453753760   -1.11052137794183    0.13859957458610
H           2.17816271579121   -0.63664075001788    0.95722118232635
H           1.88273480963466   -1.92075294169225    0.15369824045841
H           1.76203482006429   -0.19595068378404   -0.89823871940195
O          -1.26483532844425   -0.60774480779148   -1.67544465056583
H          -0.15836076908054   -3.01561426637400   -0.54255904105972
H          -1.25663097903972   -0.74033013043919   -0.70634807213330
H          -1.78758359917128    0.20933094684756   -1.77443989521627
N           1.11249886255112    0.49276669820787   -1.41911028396576
H           1.58145113207771    0.96501147475621   -2.18429461059125
H           0.77335585406056    1.16837182912386   -0.69172396172229
H           0.23574169228420   -0.01961943870357   -1.73756613127239
