    23
        -45.37905303  Gyration_radius:  2.28431731997 Dipole_moment: 5.324
 S           0.05348277955770   -0.34332530217537    1.90159846546058
O           0.34854157204399    1.04009414918776    2.19939124639451
O          -1.25583544090680   -0.47204305220086    1.23823050058162
O           1.08990857447654   -1.03909668399302    1.17265552174385
O          -0.09489122271249   -1.07871412585188    3.29682342660625
H          -0.40114233155448   -0.37952287182807    3.86530411747889
O          -0.19224596497818   -0.75682515333864   -2.40474561897945
H          -0.29107211805326   -1.19191915550457   -3.25209778622782
O           0.82378838025616    2.46938794299651    0.01141654759842
H          -0.42614617697852    1.84471353264461   -0.53347227693513
H           0.75104841488031    2.14019518838644    0.93234388881133
O           2.04168211867995    0.32183762763432   -0.96178069794512
H           1.46144116163021   -0.05429686694659   -1.63713221267892
H           1.48860672417997    1.87298625424856   -0.40479731821556
H           1.88210704451011   -0.20470985671343   -0.15702379540185
O          -0.51320344141043   -2.42418836666187   -0.41595148504456
H           0.32929265765941   -2.30789041688114    0.05479606694385
H          -1.12143479714578   -1.91980405334945    0.15153078554114
H          -0.31119808207947   -1.46375149928848   -1.70723131523206
N          -1.24640000136758    1.16987789698557   -0.79752165239890
H          -1.37068049574663    0.54221510216612    0.04882700677062
H          -0.94482251807476    0.56537452195348   -1.58466656472467
H          -2.10082683685532    1.66940521853434   -1.01649686015363
