    23
        -45.37905235  Gyration_radius:  2.28429001076 Dipole_moment: 5.342
 S          -1.53255560849573   -0.12671445059855   -1.17172235571573
O          -0.20343495773215   -0.16742452701461   -1.80696423625596
O          -1.89566803631006   -1.42498476808163   -0.65018170058776
O          -1.63524348241020    0.95710235626775   -0.22099704741581
O          -2.55763782780932    0.19087944957069   -2.33678394715841
H          -2.77033005041259   -0.67667287603389   -2.66554555879044
O           1.96960085093159    1.24538421870200    0.98053025648714
H           2.67933622911121    1.83307668649978    1.24143570029554
O          -0.42938386765804   -2.11563301473804    1.45433537843473
H           0.75143677904454   -1.70605232792205    0.62536252729979
H          -1.11600414611835   -2.04816409950837    0.75734101534308
O          -0.50883735494790    0.43545530013317    2.18148364150684
H          -0.54125522871872   -1.29120995439899    1.98230773375715
H           0.36603510412632    0.80883542549005    2.00991823285338
H          -1.05808541311627    0.69461330617602    1.41889221889722
O           0.55205908066671    2.24734257120634   -0.97511901198404
H           0.50196089586623    1.48329298889677   -1.57561655218596
H          -0.33551963651936    2.23894174763451   -0.57937497979733
H           1.47129765120545    1.70996935041604    0.24819454120312
N           1.44329094938208   -1.21166425690033   -0.06377435033630
H           1.84717680975030   -0.37893702847202    0.40484907831587
H           0.83594928096815   -0.85909574567164   -0.85902768859052
H           2.16581199920886   -1.83834035167291   -0.39954288559233
