    23
        -45.37905254  Gyration_radius:  2.28430086631 Dipole_moment: 5.337
 S          -1.49896660778732   -1.21073363670745   -0.15537015287945
O          -2.28337890530582   -0.23515117173384   -0.87807925563197
O          -0.27834696859315   -1.56262903280244   -0.90216772016211
O          -1.20128842131527   -0.85364449778416    1.21325200696900
O          -2.36860119283982   -2.53369487112661   -0.10204217158250
H          -2.87955518797829   -2.47605505210928   -0.90289537056401
O           2.29606882177921    0.61817601287097    0.85893375747716
H           3.16913647004208    0.69985967948495    1.24382609308813
O          -1.11640847405257    2.14982834016183   -0.95492673772710
H          -1.74776609896149    1.40075675737542   -1.00019306646874
H           0.11934653090443    1.40745100105478   -1.36866082326628
O           1.28610116415804   -1.76293969213051    1.24448694906156
H           0.45658730856690   -1.53678372838127    1.69773162120075
H           0.96522430209348   -1.97358783275180    0.35044080240531
H           1.97989542157061   -0.30771120034201    1.06677077557662
O          -0.28958507179303    1.67375287055556    1.52145655490516
H          -0.72620650681215    0.80308301829888    1.56179728158647
H           0.65766688001792    1.48708486577776    1.47575579410659
H          -0.92476719319381    2.24438369556208    0.00694985777487
N           0.92862612451994    0.68114685029940   -1.49316500957458
H           1.38125757383782    0.76017901896973   -2.39672321728655
H           0.46932314851316   -0.26753624448652   -1.37168440052057
H           1.60563687262771    0.79476485992428   -0.71549356848997
