    23
        -45.37905209  Gyration_radius:  2.28429288954 Dipole_moment: 5.345
 S          -1.35593574996905   -0.92180551405748    1.02454251365952
O          -0.65155186737989   -1.70527734623732   -0.00600285508304
O          -0.57335013250382   -0.84298773161366    2.23729001209858
O          -1.80535575827206    0.35203907996864    0.51072539762824
O          -2.65627803700762   -1.75223314841160    1.38320644757081
H          -2.34527205848749   -2.33562583932786    2.06799422042007
O           0.85470291888205    1.07725481086294   -2.12167435638669
H           1.04075314381996    1.42678234663143   -2.99359083986498
O           1.59268438584856    0.66655967288560    1.94840896300145
H           0.84477221771289    0.13729589286383    2.29832541612941
H           1.83606350160787   -0.11852740751596    0.69443887022804
O           0.12457350740462    2.24285334843890    0.39830516293601
H          -0.67807788159195    1.70094233380571    0.51002609242183
H           1.16140541856837    1.45948789529496    1.55323747653711
H           0.41188153932132    2.09636256079277   -0.51280272867034
O          -1.42978163699549   -0.19370012111096   -2.05520407133765
H          -1.89012197519287    0.29312214215008   -1.35152725713286
H          -0.03707515631384    0.62816544866474   -2.18047966676643
H          -1.17196471071646   -1.00809897500879   -1.58886127041424
N           1.74266564852509   -0.67836409043492   -0.24162868266481
H           2.52323160819073   -1.30683844730911   -0.39410707222997
H           1.63340856481104   -0.00757107006132   -1.02540860693928
H           0.82862250973070   -1.20983584127863   -0.15521316514370
