    23
        -45.37905250  Gyration_radius:  2.28424522178 Dipole_moment: 5.337
 S           0.33046796514539   -1.90303950663259   -0.08036575424137
O          -0.32838967612858   -2.01977202402738   -1.36165932536759
O           1.50518288110199   -1.01789756719864   -0.17123748339659
O          -0.53607661658573   -1.52680597897024    1.01348816109905
O           0.89943910783268   -3.34096258396150    0.26305154551906
H           1.07119969799023   -3.70490833769692   -0.59941835193722
O           0.06385736814326    2.23304817349651    1.18309319755581
H           0.16780151478070    2.99841506231665    1.74921319085308
O          -1.53350421568017    0.23195507838836   -2.09109333180211
H          -1.22995541866027   -0.69657653547632   -2.00444847614474
H          -0.24526537451067    0.90797615373373   -1.72768960403037
O           1.16865345329621    0.10238860934941    2.22139763873163
H           0.49533615757177    1.46681762060637    1.65970023343274
H           0.40857819229633   -0.50255249310388    2.24746325779826
H           1.66103576923704   -0.24027075437152    1.45522223635776
O          -2.15893067645088    0.56605969570993    0.46605972843953
H          -2.03550000710420    0.39899363202444   -1.25979772541400
H          -1.73014782573836   -0.26567819426091    0.73943925806328
H          -1.59521525313093    1.27297436406984    0.80780373820278
N           0.69560199340178    1.21743448678733   -1.26163614575081
H           1.31338794732620    1.68545012943943   -1.91494924375177
H           1.12849484071447    0.32175997916186   -0.89285939440179
H           0.48394816515445    1.81519100061316   -0.44077732982224
