    23
        -45.37905346  Gyration_radius:  2.28448998068 Dipole_moment: 5.301
 S          -1.08304026705689   -0.10654484870506   -1.59843848219693
O          -0.46757502946415    1.07425132134931   -2.16111747303628
O          -0.08669108511416   -1.17299311557206   -1.39362899324975
O          -1.86346147041600    0.12774515326225   -0.40488491783969
O          -2.08290645047227   -0.65526899557125   -2.69781802107144
H          -1.67633564865374   -0.36380532282091   -3.50748566998830
O           0.65307594993503   -0.77715620726601    2.31623203193684
H           0.79654262420316   -1.19579717352291    3.16549492127663
O           1.13877045049082    2.29957781701918   -0.43660039109381
H           1.71881746854903    0.94031830815574   -0.18115248986979
H           0.56647646482257    2.06358714284054   -1.19727539074702
O          -1.12074755283067   -2.06488127844667    0.89042521198745
H          -0.04645088850112   -1.31761437282515    1.84813955730974
H          -1.77463678674500   -1.36526376359069    0.72883897034584
H          -0.66522052766260   -2.10549784071704    0.03085691265955
O          -0.61302510765134    1.64878566932328    1.44755839765419
H          -1.21333524620164    1.20791766799348    0.81839622123657
H          -0.21932089360677    0.93870026834648    1.97184768689575
H           0.51642903989125    2.34765923703777    0.32582554953709
N           1.88251382118005   -0.13031782474871   -0.02328156479304
H           1.17497183090128   -0.61280274187814   -0.64928142839442
H           1.63560056309265   -0.36777839574366    0.95605083713471
H           2.82954874131268   -0.41282071391309   -0.24870147568339
