    23
        -45.37905349  Gyration_radius:  2.28453110458 Dipole_moment: 5.292
 S          -1.28642319741179   -0.96810689552610   -1.07096607000762
O          -2.24724892955352    0.10889182648810   -0.98991663841147
O          -0.05373569764698   -0.52461485467315   -1.74612560505305
O          -0.99842223398645   -1.61838662861136    0.18709369132095
O          -1.92590413763969   -2.06589566038158   -2.01721561950050
H          -2.48692056267151   -1.54575989821746   -2.58346691506028
O           2.19863249014373    0.17996333337272    1.23680494561431
H           3.06535749884834    0.10246292703640    1.63667964633784
O          -1.48936288918099    2.01887153634718    0.69346344251996
H          -1.99093632797032    1.42840807843216    0.09215293667227
H          -0.16651064666934    1.96031661708956   -0.01134677009452
O           1.60808875431666   -1.91983591009441   -0.20564623903341
H           2.04643006348691   -0.66514695552135    0.72392833599563
H           0.78341223440771   -2.21115031218029    0.21637142614480
H           1.27139997409375   -1.49365388942507   -1.01377429567310
O          -0.49698102582264    0.08964193144374    2.22156211173434
H          -0.78289125568186   -0.61759949870451    1.61436839977178
H           0.46542856075281    0.12738320971663    2.14148477639152
H          -1.27712505249153    1.44799865042280    1.46807520274515
N           0.74485655539330    1.65027463385900   -0.53196989004843
H           1.42484407802554    1.29155403162092    0.16468439054275
H           1.14180754714526    2.39654004906846   -1.09145963444924
H           0.45220423011508    0.82784367843772   -1.13478159847089
