    23
        -45.37905218  Gyration_radius:  2.28429079564 Dipole_moment: 5.340
 S           1.00875527421555   -1.15309032099453    1.17926951508046
O          -0.19179795446258   -1.64340556582764    1.81773429879004
O           1.01820177933588   -1.49280644166253   -0.25480697356613
O           1.27959846413714    0.24994261957385    1.39568813352392
O           2.21598832096848   -1.95407126658050    1.81974480741060
H           1.81536101383237   -2.78947048765573    2.03734745329719
O          -0.16255822110846    1.78687877422281   -1.78082776395319
H          -0.06063503032903    2.45289963179420   -2.46134172870138
O          -2.36356731864272   -0.32520239923743    1.04292502693150
H          -1.85872483990593   -0.53879948518404   -0.35294193514445
H          -1.71420442527679   -0.89137570814408    1.51149343774442
O          -0.85777048113523    1.85954137314801    1.00274903174865
H          -0.69849242010923    2.07988716063286    0.07522312418298
H          -2.03221391123798    0.59126956395480    1.18844951881019
H          -0.05961935698264    1.38503189402933    1.29972281192488
O           2.14095359594425    0.78602044690280   -1.05259780239604
H           1.93789877521790   -0.16569149898365   -1.06481947374100
H           0.75891777969966    1.47355754374990   -1.55016925150440
H           2.12908681870965    0.97286889229599   -0.09919388766288
N          -1.24819395109096   -0.65259153709892   -1.25428671366660
H          -1.00841955897665    0.28825288332798   -1.61937663593983
H          -1.70374556719364   -1.22150447867958   -1.95878943539652
H          -0.34481879561781   -1.09814158357854   -0.92119557778188
