    23
        -45.37905275  Gyration_radius:  2.28432747606 Dipole_moment: 5.330
 S           1.56901304777582   -0.21936119963505    1.10792453671334
O           1.73356226515978    0.55484625198218   -0.13513425216347
O           1.01024442906684    0.60221300524788    2.15779599830925
O           0.86705321693822   -1.46070732418481    0.87267416186193
O           3.03336967533139   -0.60489877364609    1.57304862594283
H           3.28124968484529    0.14146907039759    2.10901872755109
O          -1.37003455321458   -0.50796821366777   -2.06318416830222
H          -1.75866592694137   -0.78729089422890   -2.89264973902497
O          -1.52720552697068    1.24292216896959    1.70373333713609
H          -1.06871593483892    1.61888094887037    0.32606385960030
H          -0.64552672073729    1.08507981356549    2.10312373244247
O          -1.81754590513984   -1.19160132034264    0.68827917841704
H          -1.86881069207194    0.33893822370743    1.51133650499159
H          -1.88302184812720   -1.09528040991103   -0.27123050753532
H          -0.89095426427468   -1.43858438924156    0.86380852780957
O           1.05720219417609   -1.43568190115582   -1.76997953573587
H          -0.45870501952410   -0.91835278718667   -2.02442267926679
H           1.52642665241442   -0.63259369363263   -1.48390112388017
H           0.96903025323177   -1.91622976944047   -0.92996934056404
N          -0.57323815132530    1.67584562531772   -0.64818412380718
H           0.41560064536714    1.33233563047819   -0.47548771857727
H          -0.57752368275085    2.61559671639390   -1.02816372491914
H          -1.02280383836197    1.00042322135492   -1.29450028698691
