    23
        -45.35968398  Gyration_radius:  2.36405933596 Dipole_moment: 1.691
 S           0.19376713462059   -1.39310576855479   -1.46656631340582
O           0.03146657966534   -2.51154968932880   -0.56143644718726
O          -1.01878765684755   -0.55861411078721   -1.49432875428153
O           1.37696519204048   -0.59673661323001   -1.24289998487814
O           0.32166417374385   -2.00635085531671   -2.92100890033261
H          -0.31466030202897   -2.71438524208949   -2.89863660801694
O           0.02055042879817   -0.02199077751798    2.32442763113486
H          -0.22569526410582   -0.41236068707432    3.16489605824577
O          -1.62735280821148    2.49862526774538   -0.24204511645292
H          -1.83270173687201    2.38462079676756   -1.17302728168865
H          -0.61663278738260    2.40931341548988   -0.16777226493612
O           1.72678002200500   -1.61870369288300    1.20698998373105
H           1.10489584192546   -2.21206121837691    0.73656403912041
H           2.10390188097877   -1.11378987641536    0.47163874198950
H           0.71777097442603   -0.63080673648746    1.93134861259376
O          -1.92529595101657    0.18412360943097    0.66933930303310
H          -1.93215235398816    1.19928231877784    0.39336349731789
H          -1.57792549658837   -0.24981839540082   -0.23907613268783
H          -1.16923216600571    0.08726884669981    1.35214343901579
N           0.90662953818533    1.92703238994649   -0.00018518117377
H           1.05823235389770    1.08266779866263   -0.55734253634813
H           1.05420563121442    1.67382282599335    0.97043056394563
H           1.62360675151233    2.59351639402576   -0.25681637848277
