    23
        -45.35968401  Gyration_radius:  2.36407078444 Dipole_moment: 1.691
 S           1.46271196028449    0.69048263348351   -1.22998188232653
O           1.21733463109053   -0.76113827883918   -1.23348632397809
O           0.53713262842538    1.37377677018312   -2.10914746131530
O           1.52141764265912    1.21211434013613    0.11487797524997
O           2.90367660648013    0.87999400494802   -1.85891323915869
H           2.73130492191591    0.78766568904042   -2.79083420732200
O          -2.25802281648359    0.45505827158822    0.31369290806811
H          -3.13511521759911    0.63893112655353   -0.02734535132684
O          -0.12082472635610   -2.78259030423961    1.09204504579096
H           0.03801007942095   -1.91365985132567    1.59677927393902
H           0.73749776968509   -3.05070239211694    0.75550046974710
O          -1.09152037929907   -1.51473957214394   -0.83838708420922
H          -0.13058125160817   -1.15419130161025   -1.12256700044494
H          -0.81774280038290   -2.15750973213561   -0.05184577779117
H          -1.58353527157154   -0.73239387975664   -0.39896598238055
O          -0.78988916385076    2.52989655387900   -0.18532680185135
H           0.01564988612605    2.40313189242889    0.33711057680794
H          -0.47846420017946    2.29209619407612   -1.08342156021628
H          -1.71966436324253    1.28931629074625    0.15413223990703
N           0.22080206016336   -0.39287431453451    2.08144756005174
H          -0.69180633681414    0.04875076128138    2.09144327769182
H           0.79222113094280    0.11359761270834    1.40076684322483
H           0.63940722058460   -0.25501251426021    2.99242649200321
