    23
        -45.38134563  Gyration_radius:  2.27241043964 Dipole_moment: 3.513
 S          -1.04463196250862    1.31701950935398    0.51230865982102
O           0.19540504327541    2.01104136141561    0.82848655425198
O          -1.18002593915077    1.12841768608395   -0.93206250734121
O          -1.21992828190311    0.09560528421431    1.25945989637499
O          -2.22305678516049    2.28221361108232    0.94207764515423
H          -2.01654066874063    3.08673213005699    0.47750049626140
O          -1.59651325132664   -1.17945777121106   -2.20758825157265
H          -1.58482172672589   -0.30966082122288   -1.75889158979090
O           1.30712180037306    0.18457716059062    2.34443429738302
H           0.99974374416321    0.98748326814554    1.86369267816438
H           0.48849306517701   -0.19408419895043    2.68285800411014
O           1.38745552221494    0.91425515562234   -1.41090270261792
H          -1.15694996894938   -1.04828537775656   -3.04917816901968
H           0.40655460034222    0.99097981462110   -1.38220853484231
H           1.67677660059193    1.63096835149568   -0.83633790322956
O          -0.68836908417981   -2.24469590057781    0.08755436107783
H          -1.04846243103167   -1.50991247621027    0.62511619727647
H          -1.07449750781313   -2.09806529002648   -0.79905821775948
H           0.77607702673103   -1.77416731947602    0.07085055451826
N           1.70512969267034   -1.22952777154276    0.14165594898077
H           1.68715052608510   -0.46218915266770   -0.58176672668559
H           2.51244633718593   -1.83289087378771    0.03520790663955
H           1.69144362852730   -0.74635636944047    1.08679138254471
