    23
        -45.35968397  Gyration_radius:  2.3640565075 Dipole_moment: 1.691
 S          -1.29519705946141   -1.55694155002394   -0.16532494069078
O          -1.22012513905331   -1.89661789990740    1.24019587172737
O          -1.84864149795436   -0.20540077683509   -0.35103895529515
O          -0.06349002828885   -1.72766174854404   -0.89876102420603
O          -2.35368294076835   -2.54253351243729   -0.81034867640070
H          -3.02310569269080   -2.59050818617035   -0.13485715593214
O           1.49333400423624    0.75333458549407    1.61431541372811
H           1.72532203583581    0.93632680861562    2.52650186079012
O          -0.38949209968333    2.67115302710214   -1.28982154399432
H           0.31754935455343    1.96910847636134   -1.49526261188006
H          -1.16557269617274    2.41688995775206   -1.79469739537724
O           1.38380233424593   -1.82122163631168    1.35187410710488
H           1.34858703979098   -1.97825141689437    0.39688833895513
H           1.50456940604995   -0.24803980513438    1.52248565171361
H           0.44923125957780   -1.96746402679091    1.60745292086297
O          -0.82312766979218    1.61952246055096    0.94233483707559
H          -0.64773912280258    2.21320483159904    0.09174941714563
H          -1.31930110330615    0.79326468462672    0.48928868740786
H           0.09652037254119    1.28501124238796    1.24176437801361
N           1.29676398776507    0.69609747453432   -1.53942742509921
H           0.74729397257460   -0.15854857422740   -1.42102973305886
H           1.92960704077790    0.75506597296592   -0.74948180448555
H           1.85689422092352    0.58420960458971   -2.37480024166322
