    23
        -45.36388378  Gyration_radius:  2.31805748001 Dipole_moment: 2.612
 S          -1.03681586396248   -0.65058687783515   -1.10749794367360
O          -0.09987160408573    0.43345555816784   -1.35430926819399
O          -0.89401898911419   -1.80958653176219   -1.93173184851759
O          -1.13551967145944   -0.94720363103543    0.32400785426053
O          -2.46752779362581   -0.00561370437706   -1.48390386535472
H          -2.93902096361027   -0.73416501837519   -1.87567543290243
O           1.57253639058999    1.25140854592135    1.99970610285346
H           1.89941891331610    2.14839419072615    1.90678380368478
O          -1.37373379176306    2.45685498478448   -0.36306374461494
H          -0.82687683516223    1.81038414041866   -0.87475027880477
H          -2.26780594309677    2.34453430936469   -0.69520770224437
O           2.28742884628451    0.06123767892968   -0.15314489465053
H           2.16838623246955   -0.91449937770112   -0.07220743500275
H           1.55675253198674    0.32280266768555   -0.73953880533606
H           1.92271290616198    0.74067651803621    1.19438792859813
O          -0.91348546300994    1.07733813718677    1.72510791350285
H          -1.13884296892107    1.76800709389356    1.00393360773783
H          -1.03013039027415    0.16104666271558    1.20985423285169
H           0.12403864763897    1.15696040246693    1.91177877095891
N           1.33366796977961   -2.45787356962662   -0.14047388689709
H           0.76674985985640   -2.52984713457308    0.69636444680764
H           1.81054340169332   -3.34258353272404   -0.26880283169333
H           0.68141456831239   -2.34114150233867   -0.91161672339729
