    23
        -45.37184669  Gyration_radius:  2.26825811892 Dipole_moment: 3.136
 S          -1.29689488467983    0.26274686038116   -1.18795190928594
O          -2.02863367552547    1.05760989211059   -0.22268392109610
O          -0.01581093358312    0.86584613873395   -1.54527018981930
O          -1.13254475528964   -1.12586127628360   -0.79822305770938
O          -2.18486052862976    0.26414882393958   -2.50019881524604
H          -2.77395215823815    0.99590180599450   -2.34744369597079
O           1.25062421782470    0.81558279631127    1.81414786100087
H           0.83172812472999    1.66120920373883    1.52017482448821
O          -0.10755604693456    2.72194851236239    0.57066543485975
H          -0.90697321285106    2.19766966688575    0.36128089106343
H           0.34102725269737    2.82291196376541   -0.27334043272829
O           2.02926126165324   -0.06262811244475   -0.37867742832479
H           1.81130156716138   -1.11283016845861   -0.32563821611628
H           1.27615894689589    0.32455909176898   -0.94637761803151
H           1.81431753847053    0.32033786739104    0.59933852565615
O          -0.99335304638912   -0.62399950764116    1.80888026446906
H          -1.09210538154126   -0.91789946989730    0.88244517623688
H           0.48859233298901    0.21559703514761    1.99047265827547
H          -1.68535205155299    0.03347082124099    1.92322837285203
N           1.24965310731496   -2.46670037204530   -0.24462367536250
H           1.61858509817154   -3.17737259808006   -0.86211056848675
H           0.29564613686843   -2.23539720844738   -0.53468737639956
H           1.21114109042573   -2.83685177648610    0.69659289566139
