    23
        -45.37304144  Gyration_radius:  2.283376238 Dipole_moment: 2.949
 S          -0.30710451656040    1.67162314923439   -0.41190443090488
O           0.34373951014087    1.44375599867453   -1.68373265460699
O          -1.60741761964760    1.03277032003836   -0.31643408997830
O           0.56493495795884    1.33999531539297    0.71316121979738
O          -0.55788262995315    3.22948865255985   -0.29513267961386
H          -1.06419552481843    3.40128474674320   -1.08180821863768
O          -0.80718936021407   -1.50843771673071   -0.78173455193807
H          -1.23110339388423   -0.63345563636036   -0.79923706476618
O          -2.61581497719616   -0.36233770900667    1.78879746285239
H          -2.31733859832176    0.24785479897537    1.08792148947319
H          -3.34629859716844   -0.85467249127627    1.41079875140238
O           1.36302464895769   -0.94457318252485   -2.15041452879335
H           2.02111884452940   -0.80645669259388   -0.84992367850488
H           0.53437108888137   -1.39188522147515   -1.85176793314445
H           1.07157852405686   -0.01268289250893   -2.25402694650570
O           0.00810195250797   -1.08755181480896    1.81179082446730
H           0.14981983359870   -0.14261770428001    1.62424140321330
H          -0.90984228265766   -1.10847883597642    2.13016644906521
H          -0.53523975704723   -1.62378339954374    0.14751340212843
N           2.29140928826010   -0.55127709978188    0.19730739093714
H           1.92025651673785   -1.25721883811044    0.83650498082612
H           1.74348536933974    0.33607285024286    0.39633103663516
H           3.28758672249992   -0.41741663690577    0.33158235658821
