    23
        -45.36026724  Gyration_radius:  2.31951668707 Dipole_moment: 3.844
 S           0.48461880158978   -1.52164086678213   -0.33928139909528
O           1.57954125006009   -2.26968748199194    0.24282187245396
O          -0.60393814386790   -1.24457466632116    0.56099506453995
O           0.95467180786571   -0.28474523045623   -0.98565050492420
O          -0.08969451889515   -2.42153550685769   -1.51271861334099
H           0.67334111783208   -2.91856206556756   -1.79088783709269
O          -1.23624644861468    1.17838676287826    1.88187521193928
H          -1.21607474235374    0.28139187710715    2.23662947427479
O           2.17569984148200   -0.66657511311572    2.20194568148900
H           1.94316105258794   -1.36349882439420    1.53753668140090
H           3.12571620526841   -0.72116043009599    2.32572861667171
O          -2.49083067496896    0.53161160980880   -0.25691732214288
H          -2.02458904290267   -0.31333857113636   -0.14022938894845
H          -1.82989938446437    1.09070673907584    1.06311479961846
H          -2.07375628800591    0.94851654866076   -1.04648160473345
O           1.06142785833228    1.27949321573970    0.96911232133507
H           1.56156729570511    0.63895160666716    1.57732618140873
H           1.00622409431551    0.74317224822022    0.08963611467207
H           0.02656195558518    1.31445689671808    1.37746638903306
N          -0.96836384315201    1.41065486577700   -2.32511180366564
H          -0.19741798677075    0.80994487170035   -2.03770779329309
H          -0.62055066188943    2.36008332601143   -2.36861522421919
H          -1.24116955469721    1.13794818837543   -3.26058690741378
