    23
        -45.36388368  Gyration_radius:  2.31821033121 Dipole_moment: 2.602
 S           0.89332940164813    0.64169565821589    1.23100891793962
O           0.84682423273653    0.37831755093753    2.63506982948100
O           1.29238702894128   -0.46847412568578    0.38115114733357
O          -0.30682082434646    1.30039044648400    0.70886347019833
O           2.07156427623776    1.72370727530126    1.01664766856797
H           2.16921876854772    2.11356025224329    1.87982018793729
O          -1.45552272355782   -0.89652470037758   -2.26272810954318
H          -1.03657054405284   -1.36269625712010   -2.98885077172377
O           2.10382562361528    0.77142162029055   -1.74145493560992
H           2.63912792626079    1.48807786753712   -1.39190509824558
H           1.93774081045501    0.17552397406511   -0.96945885465723
O          -0.38255491996815    1.31338271904966   -1.76196060143427
H           0.61484318848652    1.15601462675948   -1.92917570052564
H          -0.88103064071367    0.41635236401922   -2.01596553466267
H          -0.43230196123733    1.36591576208959   -0.70676947488112
O          -0.73423140420568   -2.16585997032717   -0.15797288712570
H          -1.26595012445401   -1.88317494876857    0.62317379495670
H          -1.25207223835307   -1.43793884321454   -1.42748270951972
H           0.12930196901050   -1.74777143569878    0.00243748553247
N          -1.70986182920608   -0.91570663944216    2.01929400568544
H          -2.26473979619980   -1.27284153808504    2.78816292343801
H          -2.16256498877018   -0.07773250140356    1.67327030870395
H          -0.81394124081853   -0.61563914688343    2.39482495815821
