    23
        -45.37185337  Gyration_radius:  2.26809065174 Dipole_moment: 3.166
 S           1.04060398810132   -1.28871540045468    0.65071529260157
O           0.13219702188823   -0.69172364822597    1.62450467813263
O           0.38148480682469   -2.25735461361277   -0.20184643550624
O           1.76658231141621   -0.26714475477666   -0.08335363149516
O           2.11459990379196   -2.11346702329811    1.47370587290732
H           1.87920668950331   -3.01252361023761    1.26835412000041
O          -2.09598589760554    0.64668046395699   -0.84612793113233
H          -2.34326232903561   -0.23207711532228   -0.46705905955484
O          -2.16496225015586   -1.71359845761143    0.35815315974643
H          -2.05817600910885   -1.51048106892284    1.29148085309044
H          -1.28423750377081   -2.03281876702249    0.07536919630582
O          -0.80445991549496    1.59093463662199    1.05812870426582
H           0.03108623173880    2.07222167407945    0.58381383985849
H          -1.44258249813107    1.27871300282225    0.25538595687796
H          -0.42575811613091    0.71023429559885    1.40359613152950
O           0.07697597439685   -0.20751367999882   -2.13431879143759
H          -1.36503311909445    0.44274445045834   -1.47513495504535
H           0.78348547806323   -0.19646285812806   -1.45946909803707
H          -0.09850185631572   -1.14179107740479   -2.27742384807184
N           1.24273933547979    2.47164861677422   -0.13988411233409
H           1.70117186820572    1.55642591172232   -0.15534641646546
H           1.86212589936861    3.14315802099025    0.29357744977721
H           1.07069998605455    2.75291098194746   -1.09682097595096
