    23
        -45.37055022  Gyration_radius:  2.32600195698 Dipole_moment: 2.932
 S           0.26275955403032    1.77481078770140    0.89358484912399
O           0.35360553503277    0.42886602901883    1.45688924800087
O           1.53519678671571    2.43634587895829    0.73397456120498
O          -0.57394398292366    1.79667807836400   -0.28752944067413
O          -0.52696787363030    2.60167148775347    2.01712346881508
H          -0.28385745511182    3.50320711975566    1.83045803195018
O           0.59985052533381   -1.23990081308033   -1.96297655874305
H           0.96890735326400   -1.43498747849755   -2.82567812126390
O           0.57682970681931   -2.32908020978277    0.59320817568188
H           0.87278112720732   -1.51004785160950    1.01483547051703
H           0.65084155303343   -2.16290903821224   -0.36088716076428
O          -1.87332907674854   -0.13739481791404   -1.49756791231642
H          -1.09839119169909   -0.60088812206541   -1.86426609512168
H          -1.96008239293071   -0.73374948529245   -0.08369926622689
H          -1.50279428250387    0.72095654248132   -1.19269600502386
O           2.27995086826761    0.48240062263431   -0.84099624459610
H           1.99285725453641    1.28334555533890   -0.35270162725138
H           2.91937871371508    0.05239491091023   -0.26840609901270
H           1.16103206775560   -0.52187823926889   -1.58391097876235
N          -1.71023189112182   -1.04519438770383    0.92123497362648
H          -1.10839485134808   -1.89553348746332    0.86004315858127
H          -2.51314599299796   -1.15726302834997    1.52819689612232
H          -1.02285205469496   -0.31185005367613    1.27176665613274
