    23
        -45.37055019  Gyration_radius:  2.32600221228 Dipole_moment: 2.929
 S           1.05926375252439   -1.68888820150880    0.20664660513385
O           1.37998354570344   -0.33166335760462    0.64498618449692
O           0.70579539708907   -2.58849584269673    1.27803106723487
O           0.12352744916819   -1.67880026283795   -0.89785318932434
O           2.44615835656998   -2.23155893257927   -0.38652086461386
H           2.34424497453324   -3.17714979678035   -0.33987080383455
O          -2.20995302101197    0.89407706396271    0.25982993051191
H          -3.15433693253925    0.92493704365411    0.42024927504298
O           0.09091224475134    2.23084275111035    1.06117355242079
H          -0.81873956360286    1.95487634436858    0.86192964678020
H           0.54759115351560    1.41980313031107    1.32548248715606
O          -1.02038683522696    0.32494883851330   -2.15043611049342
H          -0.68741400791194   -0.55044079426565   -1.85070035462578
H          -1.62275610333631    0.59549082083182   -1.43363641888568
H           0.27048803435364    1.07220612351672   -1.77890103626446
O          -1.27135652260338   -0.98351089177842    1.88558411224183
H          -0.61663855994118   -1.66146510019381    1.61345184271147
H          -0.93440046588776   -0.62240570745267    2.70882439891780
H          -1.87107698305419    0.12810197529956    0.78189329738119
N           1.13144883041404    1.43540481143171   -1.23485331412294
H           1.41516908706930    0.62802033704413   -0.60156685460486
H           0.80613725268337    2.14818079918956   -0.54558010029842
H           1.88633891674210    1.75748882846431   -1.82816337296194
