    23
        -45.37055010  Gyration_radius:  2.32613323752 Dipole_moment: 2.928
 S          -1.82852174182075   -0.77266232795695    0.28080669457716
O          -2.51252745845839   -0.47103679691559    1.51507010083871
O          -1.42618304712601    0.40608035220296   -0.48464250741363
O          -0.73453056548837   -1.71076497565950    0.41783432578329
O          -2.91245587568202   -1.48359824089301   -0.66227143665008
H          -3.41181093117952   -2.01595866388665   -0.05075347565284
O           2.00467459978119    0.59921325461322    1.17305002271621
H           2.63537600401602    0.68390562140158    1.88968486525499
O           0.84337356803031    2.18349674928737   -0.79367134184675
H           1.40618724197481    1.80225334443220   -0.10004262935189
H          -0.06002763687275    1.94090478450343   -0.54629587981760
O           1.73726613533420   -1.59414104579604   -0.45913539196237
H           0.87058362766564   -1.85393239155888   -0.07385220175499
H           1.11516993628965   -0.76988827742831   -1.59694404899529
H           2.05340600954347   -0.89714974755280    0.14433209270502
O          -0.38915899161177    0.84710138428298    2.29429858544775
H          -1.15164619184213    0.26699746495551    2.08348950913868
H           1.11331862721247    0.58452929084497    1.59646005018956
H          -0.73043863692416    1.74285459210842    2.24157226269945
N           0.50765936534294   -0.06318785367725   -2.14570362406155
H           0.38467278126152   -0.29898586442038   -3.12290098530413
H           0.89667399789079    0.89252973694637   -1.99057874960900
H          -0.41106080733883   -0.01856039983397   -1.60980622693072
