    23
        -45.37055016  Gyration_radius:  2.32606627495 Dipole_moment: 2.928
 S           1.45529523194444    1.21922360959850   -0.64271313044879
O           1.55741714738055   -0.06284724444709    0.05228288494342
O           1.82131088942659    1.16684199297298   -2.03753879007181
O           0.18342433901689    1.85980635457388   -0.38279904528195
O           2.56760079470582    2.12576088673462    0.07195673977087
H           2.74710617981659    2.79739294946677   -0.57887956233737
O          -2.06033886705379   -1.01811430009269   -0.68641912237018
H          -2.82758541894209   -1.22200778338929   -1.22334673883479
O          -0.07439316218246   -2.36462042644397    0.71596696652481
H          -0.87788393027354   -2.09892321322743    0.23936290789371
H           0.64636504125016   -1.89105888225560    0.27723942123838
O          -0.07997690491380   -0.59519097234421   -2.40355909975488
H          -1.34889566952771   -0.75663121963080   -1.31849664527587
H           0.55928194044188    0.14484805111965   -2.32584264253706
H           0.45600925305655   -1.37877156028742   -2.54660466093808
O          -1.85707043425863    1.08139289270110    1.07424076978004
H          -0.77433312179479    0.37904086205419    1.90891883542658
H          -1.21279024763233    1.57010861443955    0.51465379381866
H          -2.16152163543981    0.36118566951367    0.49251516065657
N           0.10477379718400   -0.18150048420443    2.19570806308654
H           0.43687851495800    0.02465511474264    3.12995592338757
H           0.82453700979516    0.03382143965775    1.44141587566362
H          -0.08521074695707   -1.19441234125158    2.03198210565993
