    23
        -45.37055016  Gyration_radius:  2.32605860802 Dipole_moment: 2.930
 S          -0.53068332164375   -1.92937052322352   -0.11437898182791
O           0.32898687619581   -1.14853416774699   -1.00228701010647
O           0.17677205668720   -2.88078390923418    0.70813111787622
O          -1.44925454510811   -1.07856999335215    0.61233363919821
O          -1.42584005176182   -2.79668192808431   -1.12254266096674
H          -1.71125817577146   -3.52682241961990   -0.58198856816594
O           0.80153410445012    1.65654225634617    1.53758288051290
H           1.06480954373567    2.06445302862298    2.36389960233539
O           1.77600192457279    1.36268080171849   -1.04772454974264
H           1.68014745417942    0.39989049642256   -1.04391438693847
H           1.58982439549578    1.63854317552017   -0.13522441641030
O           1.52997406782887   -0.88886337858340    1.73479345035529
H           0.97250196865855    0.69046423218379    1.64524931774769
H           0.96351655920337   -1.64036830287391    1.45776879318076
H           2.38728722751379   -1.05775460260711    1.33713246780781
O          -1.76556690485565    1.52733283415282    0.56626906562740
H          -0.93912525405464    1.76370532705662    1.02548204180506
H          -1.29174523954280    1.38871815546300   -0.88949196509018
H          -1.83864870419903    0.55763866128106    0.71250418117835
N          -0.74989276376495    1.07891550425548   -1.77241961251730
H          -1.26539999961368    1.20331337418793   -2.63520837902501
H          -0.48470110174896    0.06448476600596   -1.58850461726146
H           0.18075988354374    1.55106660210851   -1.76746140957231
