    23
        -45.37055010  Gyration_radius:  2.32591946813 Dipole_moment: 2.931
 S          -1.35126228932808   -1.45961103934494   -0.24590258975673
O          -2.31553409008057   -1.68037049445801    0.80457081087529
O          -1.34671979028823   -0.09834649249210   -0.77884135357328
O          -0.01104524633677   -1.90632756090013    0.07014202318916
O          -1.83873958055124   -2.34927963990724   -1.48715592037120
H          -2.17549206108549   -3.13554018431088   -1.06853472071609
O           1.30944923276798    1.10598002702668    1.67728578282779
H           1.69969583486808    1.29852717853394    2.53119912611277
O          -0.01979014884360    2.44484954385816   -0.36334349597313
H          -0.76661307839279    1.82969144569366   -0.36779770128584
H           0.51100296425413    2.19217590759658    0.40977636176920
O           2.29875901024215   -0.67994866808094   -0.16110127842161
H           2.17434241645116   -0.03799169004783    0.56158417240932
H           1.56654290567441   -1.32199938790204   -0.02471438751528
H           1.61103152126840    0.03019536756178   -1.33813835104018
O          -1.12884852369678    0.19262326503163    2.19676908996758
H          -1.52291650122102   -0.58923867694713    1.75439776492803
H           0.44553399950881    0.66782315959542    1.86649521916030
H          -1.79772694438104    0.87904184470667    2.14069584910472
N           0.87653291979006    0.53220714113105   -1.95268699916115
H          -0.05791379899065    0.11761281796741   -1.65541875858313
H           1.04784893824499    0.44967021844456   -2.94741303568870
H           0.79186232012741    1.51825592724334   -1.62186758825807
