    23
        -45.37055020  Gyration_radius:  2.32605320227 Dipole_moment: 2.928
 S          -0.55844464470719   -1.90312170111958   -0.28784668683595
O           0.11066238540299   -0.98257047613381   -1.20546576772867
O           0.29276692376586   -2.94874524738913    0.22619736111132
O          -1.30440073223899   -1.18787609730922    0.72580881595971
O          -1.64584551372485   -2.63325641347697   -1.21221470828634
H          -1.82292517826296   -3.44029451681558   -0.73876106555955
O           1.10994212941304    1.43157426319294    1.57057064465703
H           1.53836382792589    1.72026217710057    2.37779159945493
O           1.53799847025798    1.54063860087059   -1.17246742088296
H           1.54268425695451    1.67600955879679   -0.21066303270771
H           1.43795336111801    0.58570498337864   -1.29148390890540
O           1.84234038849659   -1.09878061510934    1.24081145271891
H           1.29150362131293    0.46411811789424    1.49817279881615
H           1.22517860387629   -1.81392815606664    0.97615584136422
H           2.59981430848566   -1.18949221355281    0.65803024712072
O          -1.60182921624536    1.38938803269090    1.12974877591821
H          -1.65202136959976    0.40742240818194    1.14331655331035
H          -0.69739401043363    1.57405837909437    1.44226506234825
H          -1.43391627204817    1.47457888296989   -0.39586589823906
N          -1.08467151181817    1.30862121123991   -1.40564601352418
H          -0.79527542798273    0.28444616833595   -1.43013464739609
H          -0.16898684843143    1.79605467984348   -1.51931582104844
H          -1.76349756151696    1.54518797338303   -2.11900419166574
