    23
        -45.36026727  Gyration_radius:  2.31960591929 Dipole_moment: 3.823
 S          -0.32224089596473    1.18176694348562   -1.07193332384504
O          -1.22910521260858    0.09501566312796   -0.66597063368261
O          -0.90851033136823    2.48458806446571   -0.83475132984292
O           0.98550717750377    0.99470968934882   -0.49993445364235
O          -0.17470872784450    1.04571068219111   -2.64574585805413
H          -0.87693393401710    1.60004740984556   -2.97156717634726
O           1.71005885641623   -0.44352807551964    1.83105100755074
H           2.00058819662341    0.43104855759141    1.54557148602136
O          -0.85172725507830    2.48853087104845    1.76567447183975
H          -0.81798124336677    2.59229712124907    0.78119363007272
H          -1.62865821275704    2.96945765404471    2.05889806050263
O           2.00226259959888   -1.52466267820219   -0.47405292066143
H           1.22061280156719   -2.07825995783780   -0.70556499692425
H           1.78454951201253   -0.63320076906112   -0.79476669332453
H           1.89340126666053   -1.02501461928724    1.01951326674874
O          -0.73530223557213   -0.06800581020555    1.78512517359941
H          -0.80240033287999    0.92918553495866    1.96217309785403
H          -0.97986430549781   -0.12620765739140    0.78468583738640
H           0.35076086495070   -0.30019714525047    1.85351222497385
N          -0.39002545065624   -2.63602887397742   -1.11344644179955
H          -0.50172690544984   -2.99241088133386   -2.05390328061061
H          -0.84567736292339   -1.72586127816963   -1.06949841317049
H          -0.88287887929739   -3.25898043515954   -0.48626273462977
