    23
        -45.36026666  Gyration_radius:  2.31953412727 Dipole_moment: 3.816
 S          -0.95992774477067   -1.26420157102642    0.36808255015883
O          -2.40479325824863   -1.34800190391512    0.31605930056576
O          -0.38503550691360   -0.95437699098526   -0.95164407715699
O          -0.44241974481191   -0.37126319440955    1.37173301743771
O          -0.44752259157650   -2.72345010475509    0.72238704497596
H          -1.13873655798297   -3.27856942891804    0.37507138576351
O           0.62458784116326    2.23239097479500    1.04631794323747
H          -0.00492461237089    1.91388226710258    1.70439376004256
O          -2.94334387903800    1.16413015077850   -0.09085548812023
H          -3.72096138166304    1.19295233912763   -0.65244637955484
H          -2.81514249401609    0.21310605700402    0.15440589046058
O           2.20561444772328    0.22972080075743    1.28141536637444
H           1.38646025018187   -0.24807169328765    1.49512780059174
H           2.47702646995729   -0.10928672553056    0.39682575175150
H           1.39291876263069    1.57315443775913    1.12234484786284
O          -0.58164520252745    1.54321723328877   -1.00117061317298
H          -0.40308811747372    0.52952310227550   -1.06904076240956
H          -1.54999712755683    1.56790276800938   -0.69822412578278
H           0.00337948288783    1.90403097168590   -0.12566117406693
N           2.49200215759770   -0.81556187010716   -1.20694216682381
H           1.49311535458233   -1.00827835100591   -1.26127773038337
H           2.98179841346057   -1.69700215893144   -1.29123171315731
H           2.74063504876076   -0.24594710982013   -2.00567040857307
