    23
        -45.38086895  Gyration_radius:  2.27626719116 Dipole_moment: 2.837
 S           0.40532737814398   -0.21200081940246    1.67210897532446
O           1.40035328491108    0.60109893252150    0.99336625547186
O          -0.80857715881924    0.54210091393526    1.94339466057321
O           0.13271784122979   -1.46783780212847    0.99461845086991
O           1.03184784130546   -0.61175667890467    3.06998059338034
H           1.35540563942905    0.21764039493111    3.40561428768965
O           1.30731690155816   -2.57078773070890   -1.13201770067553
H           0.96329695151957   -2.27042403861101   -0.26721223048818
O          -0.41717998725270    2.59188120569018    0.37094928977459
H           0.54546452866411    2.54924262525260    0.39396294785284
H          -0.68563657557679    1.93212885815123    1.05248941731989
O          -2.17301796932194   -0.79764333638527   -0.06291814721654
H          -1.36420665724127   -1.22168395548688    0.30025427985114
H          -2.48281862674895   -0.26007378636481    0.67417263702872
H           0.70128563892244   -3.24709510987163   -1.43839700056732
O           1.50254849216181    0.07464681953429   -1.61867779986670
H           0.04851892439870    0.55871084175443   -1.78049711830435
H           1.63876640357780    0.29607582241074   -0.67272578252673
H           1.55907553637940   -0.90029529726166   -1.64803060453574
N          -0.94340693935306    0.95662588409187   -1.63901190611202
H          -1.36304811132329    1.25998950334781   -2.51015072179404
H          -0.82608074531767    1.75500474864940   -0.95126470159083
H          -1.52795261122759    0.22445200472880   -1.15000808142428
