    23
        -45.36026670  Gyration_radius:  2.31953926867 Dipole_moment: 3.812
 S          -1.01231630350234    0.62165140414114   -1.11361991385556
O          -1.10985016442123   -0.70565592470803   -0.48356258204904
O          -2.21580399556779    1.40089424142728   -0.90933994384765
O           0.20738222181209    1.28101616152129   -0.72625913896640
O          -0.92698429906518    0.34571683786239   -2.67382861438359
H          -1.84045402852626    0.37040986943671   -2.94128986227218
O           1.78578823040160    0.87013353249591    1.58922726422921
H           1.50582459496254    1.70123380043747    1.18706864177876
O          -1.98559233835897    1.83910566814866    1.64471816993664
H          -2.87488225967784    1.84818936872686    2.00530539065342
H          -2.08719675654037    1.78961994715252    0.66079904842348
O           2.47330867144496   -0.21496512828851   -0.62807723407290
H           2.12999077901704   -1.13653323632682   -0.69074657803174
H           1.76541496806428    0.34379051274237   -0.99093860339779
H           2.20823776674527    0.36832740531580    0.81449593397312
O          -0.43468414011985   -0.18425984086969    1.87230625976872
H          -0.67436070498438   -0.52304769384933    0.92789850122010
H           0.59243631923387    0.23839904428643    1.79959027335800
H          -1.04392288993603    0.62160340172519    1.96921910491104
N           1.09672476648266   -2.54761918406833   -0.80297934783224
H           1.14059317993629   -3.05099774225914   -1.67971156806243
H           0.20943812509525   -2.04775814219705   -0.77535129274604
H           1.09090826749778   -3.22925431292571   -0.05492390866594
