    23
        -45.36026710  Gyration_radius:  2.31956824258 Dipole_moment: 3.820
 S           1.50457689479591    0.49185650298220   -0.38123406197007
O           0.31774442156963    0.54505392409802   -1.25124115948483
O           2.10061180811192    1.80033901749359   -0.20864840950639
O           1.20735110447011   -0.20302830006233    0.84396233497126
O           2.57156498610132   -0.37666045952656   -1.17160645592332
H           3.05096485626594    0.27992125833112   -1.66722940854230
O          -1.29928862416222   -0.56229068373821    2.11376170637980
H          -0.45399094714449   -0.30955616349490    2.50411709713660
O           0.24317978111696    2.90456840876900    1.23966162394947
H           1.02679520804918    2.51921202978146    0.77230724075551
H           0.21264469373244    3.83104804950560    0.99134601725675
O          -1.46364383776327    1.19989760253687    0.38449417660007
H          -0.93497191708791    1.95927997817816    0.80154146754046
H          -0.82799706970342    0.87955954806339   -0.36219157683976
H          -1.46895852514438    0.39613274500891    1.15422198640606
O          -0.31484829000512   -2.44779458241967    0.68442914115966
H           0.47369417872648   -1.87933248940862    0.67949853240039
H          -1.07279930610587   -1.40576619809282    1.59637886067336
H          -0.66338834301180   -2.41057644180944   -0.23653538456267
N          -1.04039450845858   -1.92967292869628   -1.87915876533270
H          -1.99942739605686   -1.74238315768504   -2.14276397412556
H          -0.62569296087757   -2.49941857060984   -2.60539457989150
H          -0.54372621742338   -1.04038908921936   -1.85971641922211
