    23
        -45.36026654  Gyration_radius:  2.31951818518 Dipole_moment: 3.813
 S           1.50945977088152    0.48652875070745    0.37435181977594
O           2.14798206824947    0.53708196651980    1.67323598631642
O           1.08950737494020   -0.88141492922568    0.02720711304115
O           0.42161002658980    1.41310286170033    0.19936340942780
O           2.63091357674883    0.86741771571266   -0.68146144826893
H           3.43153838795670    0.59369915581769   -0.24480917976642
O          -2.36395027898993    0.90530126930577    0.24499214676461
H          -1.87099413058122    1.61771691143351    0.66959230484753
O           0.07058432184728    0.06131046877966    3.16506481990920
H           0.88015842058140    0.33757111869615    2.66575377123696
H           0.38103234369056   -0.44666145299209    3.91771507223224
O          -1.14634575806245    1.11631983610252   -1.99984422467655
H          -2.05877440977866    0.95645488434116   -0.72190389169638
H          -0.40468636880326    1.40574377315538   -1.44204427570450
H          -0.88096524373336    0.23034126499592   -2.33994023762211
O          -1.12975359776942   -1.02375142200946    1.18191754220073
H          -0.26123741923085   -1.06034832412764    0.62655061326937
H          -0.79901006966057   -0.65656781467217    2.06836302366097
H          -1.74512483948810   -0.20637548871548    0.74325638829936
N          -0.13195075019256   -1.33949863442170   -2.55362313853623
H           0.49570826327398   -1.42010224879547   -3.34322521360100
H          -0.70000802178249   -2.17658281298833   -2.52349446112578
H           0.43430631374261   -1.31728686855128   -1.70701794915871
