    23
        -45.38087088  Gyration_radius:  2.27631538243 Dipole_moment: 2.847
 S          -1.52255528585702   -0.41334164973532   -0.71579583585894
O          -1.75969130191373    1.02116074375976   -0.76508827300238
O          -0.41793388896263   -0.80279745932587   -1.57577032234540
O          -1.38889492071787   -0.90368181666895    0.64504168270320
O          -2.81538901115919   -1.12023650586051   -1.29467677387598
H          -2.79706176627088   -0.88390727207404   -2.21606164347494
O           0.42021625556853   -2.54868340328478    1.71323697854826
H          -0.33869457771105   -2.07296940013329    1.32064764979868
O           0.46730480791711    1.79773576829229   -1.89075836101500
H          -0.43885627416038    1.67032230299128   -1.52418992452678
H           0.62693973717652    0.97511673217622   -2.36711158274204
O           1.81738255805141   -1.24730746572774   -0.19186695977337
H           1.05366983205012   -1.21345733232483   -0.80675304401752
H           1.83619289882766    0.22523036739057    0.26189732847620
H           1.52093466112536   -1.83847803738638    0.52714221005162
O          -0.65684412225923    1.35798975947344    1.75474849947492
H          -0.97093480481770    0.45876743208057    1.51269376233039
H           0.34100534140493   -2.43804681321968    2.66188828642840
H          -1.21020350514797    1.93140817940160    1.21317450136809
N           1.64167553998987    1.27384749347265    0.41964999468763
H           2.45937986101216    1.76963841300458    0.75516720070191
H           0.82289374895587    1.36367094837090    1.08180905197266
H           1.30946422684652    1.63801901528083   -0.51902443583218
