    23
        -45.36026655  Gyration_radius:  2.31956616161 Dipole_moment: 3.814
 S           0.21218225959878    1.42254956106484   -0.76621708020299
O          -0.12838534137047    1.23310986046233    0.65372541716787
O           1.42940879479978    2.19062166694185   -0.92687009730556
O           0.19481861047641    0.16475599441794   -1.46628072159427
O          -0.95348044585978    2.31554027081060   -1.36712399097367
H          -0.62193087705821    3.20021390900001   -1.24883456565009
O           0.54660515329886   -2.44681263908451   -0.42749756903722
H           0.93491148596540   -2.05298548094815   -1.21796575034744
O           3.13607600550961    0.43754294546472   -0.04351515661038
H           3.83032609095033    0.92760272751134    0.40228593808210
H           2.55538382581407    1.11329778670458   -0.47612960503849
O          -1.81569748314595   -1.57003600384056   -0.89252497468687
H          -0.44691114237416   -2.27496999005357   -0.54636665241292
H          -2.21320270196028   -1.18306378365386   -0.07809633580109
H          -1.33825891576606   -0.83580104142355   -1.31441716461604
O           1.27115453509516   -0.76267761003513    1.23409910187958
H           0.61780440264470    0.02358843690035    1.09645307095867
H           0.93355013116430   -1.57125373074547    0.54744018514712
H           2.12468607373516   -0.40410961245936    0.81831127723266
N          -2.56349376729340   -0.17953344649365    1.31526118631059
H          -3.42288987931181    0.35226090631182    1.26575773573325
H          -1.78818246819263    0.46977460537054    1.19197477925375
H          -2.49447433672925   -0.56961531221635    2.24653096250702
