    23
        -45.36022600  Gyration_radius:  2.35972372244 Dipole_moment: 2.402
 S           0.85221871353099   -1.03672788475254   -1.40142640118301
O           2.13927061871342   -0.42214329950008   -1.21291645345993
O           0.26636199508511   -1.61224416939516   -0.20348626125531
O          -0.09895625263564   -0.14837589506618   -2.08100863381139
O           1.08057101103721   -2.25382109458133   -2.39394815387558
H           1.76143459533332   -1.90008830786856   -2.95624431914770
O          -0.76418722120461    2.68684921753907    0.15789826440562
H          -0.56857847120040    3.39532829182553   -0.45817032712299
O          -2.11335360540204   -1.14049694112986    0.71838096173644
H          -1.19022160642782   -1.38052887100184    0.44504584346775
H          -2.66670890452270   -1.88465278035495    0.47398376762609
O           1.46600521297488    1.48929802690737    0.55064331112533
H           1.78814050423211    0.89198319250992   -0.14965240508398
H           0.12324269574655    2.23696641825444    0.35204510192545
H           1.36216074871219    0.91222608415331    1.34184943254051
O          -2.04060683805599    0.82124105424855   -0.90976980754649
H          -1.25003919321684    0.40499220748615   -1.48080877539898
H          -2.20919233137032    0.11597443847191   -0.19299571376551
H          -1.58162585139155    1.64573641474831   -0.43572603896588
N           0.98401996528041   -0.45467554524178    2.38037903571197
H           1.69457726555634   -0.86168792683210    2.97445592015236
H           0.85024931136173   -1.07140327070652    1.58214011711773
H           0.11521764792861   -0.43374936974830    2.89933153485500
