    23
        -45.38087114  Gyration_radius:  2.27622605368 Dipole_moment: 2.861
 S           0.41949027781596    1.48198789121894   -0.79378717482603
O           1.29882119492800    0.66124730529794   -1.61225357416787
O          -0.97812377754256    1.14956020325887   -1.01126410132661
O           0.79944809485756    1.46862648754834    0.60819984978419
O           0.60633571473892    2.98084391651382   -1.26785563542029
H           0.23526335577570    2.97938344051110   -2.14402984882286
O          -0.69556247509386    1.14450693131806    2.79452036206278
H          -0.15073115233048    1.41887009153985    2.03009512729945
O          -0.38205605534435   -1.20722862636947   -2.32839333995958
H          -1.17056425610009   -0.65612884653268   -2.26838155727624
H           0.35157409774300   -0.56025953039765   -2.20606937373341
O           2.07852746867361   -0.82166343643977    0.59553751792665
H          -0.07941400274068    0.93402168918546    3.49777698985980
H           2.46019639453180   -0.73225311415924   -0.28456448356719
H           1.69097619539603    0.06687059461745    0.75750194490445
O          -1.96572597275504   -0.35987698830748    0.95222380229842
H          -0.97011274136241   -1.48071391180398    0.59780420835960
H          -1.69208197815920    0.11774220402858    1.75947761411924
H          -1.76589906460941    0.26506968561222    0.22286079893899
N          -0.20981358944161   -2.10300804639233    0.15351445450146
H          -0.29762304372501   -1.94486023816003   -0.89114129298634
H          -0.31852892919837   -3.07908123086289    0.40348470323230
H           0.73560424391387   -1.72365645127304    0.43474299883684
