    23
        -45.38087154  Gyration_radius:  2.27631195472 Dipole_moment: 2.874
 S           0.50342777634996   -0.91315063526862   -1.38415806924614
O          -0.05584024980575   -1.78040739763202   -0.36128358199626
O          -0.53625259218809   -0.18790024123898   -2.09824972205737
O           1.54432042599408   -0.03347497912202   -0.88143234822554
O           1.21854039729744   -1.85619181664715   -2.43556482369871
H           0.53946356537791   -2.48339892888497   -2.66081322645598
O           2.70026376818956    0.07680389308809    1.52136673525534
H           2.41040521254831   -0.03965359511485    0.59465637517393
O          -2.54290652234326   -0.57935858667262   -0.47010218014888
H          -1.91950557896370   -0.39329081275815   -1.21063638644825
H          -2.21872467062245   -1.41608858582782   -0.11807159072885
O           0.11992084629400    2.16765907325414   -0.79333494882423
H           3.13308834656657    0.93109198216684    1.55881787560503
H           0.79851415341272    1.45719810296375   -0.81884187907325
H          -0.40038264474731    1.99599299003448   -1.58585007834272
O           0.18988580465014   -0.73562684827380    2.07924857575916
H           0.12265298779714   -1.27600991056327    1.26316812265149
H           1.12966133859475   -0.47090776757712    2.11572227671612
H          -0.71118591351689    0.44492379008747    1.66976552733183
N          -1.36244003037203    1.13617433158652    1.15924628494772
H          -2.01179347674748    0.52971568322591    0.58071154001363
H          -0.78278925320093    1.69242138292742    0.47271374779563
H          -1.86832371051854    1.73347887631673    1.80292176412035
