    23
        -45.37055033  Gyration_radius:  2.32627946148 Dipole_moment: 2.931
 S          -1.33114657633448   -1.13091175982646   -0.98366655753481
O          -0.10640287337141   -0.50005887292006   -1.47269643237191
O          -1.27868434823064   -1.34590359521078    0.44706634647262
O          -2.54530763854693   -0.50377229930539   -1.44690091434315
O          -1.30043897179319   -2.58585730508501   -1.65573551337651
H          -2.21354309049397   -2.85434131162382   -1.62657031030571
O           0.16118141911957    1.85032383588570    1.51665790201535
H          -0.10746533199771    2.54233456500436    2.12287198028772
O           1.80644869309092    1.53631945268722   -0.70096006166328
H           1.10891915489993    1.14140568484426   -1.24288592139400
H           1.35849455097297    1.83872185137711    0.10601168501788
O           0.59831607216775   -0.77656412805799    2.19241553610097
H          -0.20121337884100   -1.09809858321658    1.71874901581600
H           1.53916447197179   -1.00883087882737    0.99934551832572
H           0.49413705385815    0.19241057577835    2.18053621979123
O          -1.75777835452006    1.72037706045576   -0.31308453108862
H          -1.55291175561329    2.23424111113963   -1.09771029505151
H          -2.13511628937667    0.87845180362901   -0.64659573634123
H          -0.59562190713052    1.72505472573557    0.89556382793053
N           1.96258555011977   -1.00638059100126    0.00440025838756
H           2.35096863694212   -0.05623860403094   -0.18348749721987
H           1.12334058073124   -1.03627824551750   -0.64993165845499
H           2.62207432237353   -1.75640449191606   -0.16339287100251
