    23
        -45.37054940  Gyration_radius:  2.32614998136 Dipole_moment: 2.918
 S          -1.75462556769003   -0.46387528436840    0.84943372506649
O          -1.68196967765592    0.85935796979671    0.26738547669437
O          -0.72828176101666   -1.34537144332719    0.29529198691977
O          -1.83102653108850   -0.47771585685587    2.29038079923003
O          -3.12741881034631   -1.10811960661142    0.32960608847767
H          -3.76497426665053   -0.79105025819774    0.96175124753706
O           1.94470395336533    1.37122817639579    0.29478326371854
H           2.53165343240020    2.03251482304540    0.66446531445883
O           2.04700966410165   -1.27892593544819   -0.53491214394729
H           2.24227715149910   -0.36611760758196   -0.26647585637219
H           1.29628325758592   -1.54697029602152    0.01347010253108
O          -0.04897065910538    1.85150657629804   -1.53356317624666
H          -0.02518364011646    0.40561199112988   -2.05492509042109
H          -0.77030069456651    1.68336911834510   -0.88685794220057
H           0.75161196921605    1.87784561140227   -0.97839897372957
O           0.66223502665497    0.31802636155767    2.36687296261621
H          -0.30135821230473    0.13438357181189    2.37380171424015
H           1.07576465229159   -0.48900987734141    2.68211259349540
H           1.39025007747070    1.05037812049382    1.04562574279337
N           0.00385727480252   -0.67437886786480   -2.09920878072248
H          -0.50864174559772   -0.99800313227417   -1.22413386534107
H           0.98147749693206   -0.98372161408313   -1.90555519180323
H          -0.38437240018156   -1.06096255030146   -2.95094998699421
