    23
        -45.37055012  Gyration_radius:  2.32589335454 Dipole_moment: 2.941
 S          -1.85449142649120   -0.33811664388071   -0.68029632972125
O          -0.60766180736445   -0.17012909130984   -1.42467028682303
O          -1.60457221582676   -0.78358835644626    0.67431017291113
O          -2.75917716801915    0.78139274260699   -0.78094910340196
O          -2.57671648266942   -1.55951978626045   -1.42625321091342
H          -3.49035352633861   -1.45146272068160   -1.18055641955490
O           1.23418997597627    1.36518827355340    1.53599202360847
H           1.41488099686518    2.00085978550420    2.23009054455329
O           2.09953592445880    0.79080032860995   -1.04106387534686
H           1.20576246847284    0.79669052002236   -1.41164068620540
H           1.99682315435819    1.11024601709009   -0.12955834679144
O           0.65147144281458   -1.29302824297117    1.91697517731068
H           1.13861480868368   -1.68075770549203    0.51125616228442
H           0.96608410765998   -0.37373957647909    1.99224097331883
H          -0.28754931493114   -1.19143756901396    1.64329452840897
O          -0.89179520118213    2.29960064505314    0.24956172457203
H          -0.65406876501788    2.80769539328819   -0.52959402654038
H          -1.64900451386191    1.74086137942048   -0.02754298677684
H           0.38495364548158    1.65017636416642    1.12153892935860
N           1.30870434677298   -1.68428319979600   -0.55645849872220
H           1.53988697396956   -2.59572500751311   -0.93255261797531
H           2.01394360651901   -0.94760838860379   -0.77786405288797
H           0.42053897966900   -1.27411515086625   -0.97625981466911
