    23
        -45.37054998  Gyration_radius:  2.32613698791 Dipole_moment: 2.923
 S           0.29825390202563    0.24324692255630   -1.96684488349501
O          -0.68414249103280   -0.75866223901369   -1.61117053636582
O           0.51910864013574    1.18442306476674   -0.87018275268483
O           1.50961664547497   -0.28868331709065   -2.54294248077527
O          -0.37419782575165    1.14506518804427   -3.10893254703097
H          -0.18634841145407    0.65756537238934   -3.90499045506325
O           0.39673345265427   -1.53133041591474    1.80205752622928
H           0.66109918911703   -2.32865571410205    2.26344335019115
O           0.74573914524481    1.21694733055336    2.01863640685875
H           0.69065921155330    0.25842116540969    2.16560693453624
H           1.05804033113224    1.31413926939679    1.10802841452709
O           2.13055826909697   -1.25162416769020   -0.18873386577386
H           2.85512675972111   -0.66321657997300    0.03600843992332
H           0.97049466861466   -1.47880484223212    1.00063660635825
H           1.87375087221161   -1.00766632947725   -1.10350483713339
O          -2.04216058878129   -1.11238173533283    0.60800626662087
H          -1.92201639938094    0.41578775404886    0.72122209635537
H          -1.67345417487836   -1.14711731739304   -0.30289679619158
H          -1.30086470092951   -1.41397737324433    1.16416127103726
N          -1.53299356815555    1.42437942062969    0.69534847095653
H          -2.24647121788532    2.13759646254767    0.60645493307482
H          -0.83767596901574    1.42877829745064   -0.11072613925415
H          -0.90885573971842    1.55576978367135    1.52131458709945
