    23
        -45.37055026  Gyration_radius:  2.32694991783 Dipole_moment: 2.916
 S          -0.83962544789538   -0.82576652184009   -1.62319107018092
O          -0.96819182625351    0.61314965589137   -1.52912101106214
O           0.25914695849403   -1.31755274567950   -0.79390917786694
O          -2.07824475662371   -1.54601430458092   -1.45173718565887
O          -0.35168948283246   -1.13459529704665   -3.11844264800496
H          -1.16581296117259   -1.14002379981072   -3.61231480634308
O          -0.53645593645003    1.04807015423241    2.08844783320159
H          -1.05756380303630    1.44385808153506    2.78869933926262
O           1.47349493972141   -0.84808369587496    1.79790337462541
H           0.84026580158404   -0.18622965227092    2.12097436560367
H           0.98952751083406   -1.35430491489336    1.13040202620027
O           0.40337535309364    2.36397797674894   -0.13307159954364
H          -0.20620687639868    1.89764603861385   -0.74772187659552
H           0.07175614128071    2.11393710264645    0.74857441997035
H           1.55408810747845    1.36398694782871   -0.33358059433868
O          -2.04931486755985   -0.88597208755246    1.08064477471078
H          -2.14992988824778   -1.05174992598808    0.11884783445368
H          -1.86026023131339   -1.74413467485496    1.46708987271299
H          -1.13074356543940    0.39877736724074    1.64178273445771
N           2.11992399168070    0.44631072802990   -0.41410360913672
H           2.29238271591098    0.08243840107336    0.54869497665140
H           2.95943913873334    0.52939406955451   -0.97442998352195
H           1.43063899441215   -0.26711888300258   -0.80043797959673
