    23
        -45.37055032  Gyration_radius:  2.32666560979 Dipole_moment: 2.925
 S          -1.73064493135979   -0.84762078380445    0.55390297090511
O          -1.39551451573978   -0.13981061885904   -0.68043762302114
O          -0.54880853901306   -1.39613959000708    1.18490083027427
O          -2.59162345499864   -0.10769387372142    1.44460360363330
O          -2.59092444923258   -2.10199625586763    0.04827323301518
H          -3.08282892439503   -2.35130629876917    0.82449160991212
O           1.74569560826492    1.43982045614626    0.79355338077345
H           2.26758155269491    1.97476437406506    1.39354863146212
O           0.63925717741004    1.62768718392050   -1.74839433568186
H          -0.24819258767579    1.38285126654239   -1.45064803297219
H           1.15692402653345    1.73930356136945   -0.93418612354918
O           1.97635667679072   -1.27930482817876    0.47469018007807
H           1.11085687892584   -1.46851915215407    0.90135707075372
H           1.39618547272293   -1.24055529119934   -0.94826912531054
H           2.11829367771983   -0.33299356685522    0.65963599091960
O          -0.77668429675187    1.77488352046254    1.54820568684277
H           0.81936490992711    1.47714483077454    1.13254993307426
H          -1.22510574122159    2.45640425756690    1.04214655208092
H          -1.42342897527023    1.04090321325455    1.62350881538017
N           0.77275997488291   -1.01166421853988   -1.80156556569282
H          -0.20272303578865   -0.87375294875582   -1.39817639765626
H           0.80367473853327   -1.71208566368714   -2.53236799793596
H           1.00952875704184   -0.05031957370751   -2.13132328728226
