    23
        -45.37054962  Gyration_radius:  2.32684285167 Dipole_moment: 2.927
 S          -1.44804163730636   -1.21629595202157   -0.66758158645146
O          -0.96484792454693    0.04538207683198   -1.22543419952151
O          -0.43646787279602   -1.85468445102678    0.14813469285912
O          -2.74622562326136   -1.12880007620576   -0.04359304568472
O          -1.63747421927787   -2.15019868244306   -1.95633985919932
H          -2.23464068275752   -2.82427512052922   -1.64696994197393
O           0.81823279997284    1.06460861659198    1.98546223455474
H           0.90796643501929    1.29695615022859    2.91090583290324
O           0.63208545114919    2.34600955710203   -0.47176471932239
H          -0.17685504503113    1.88093926377844   -0.72748022149065
H           0.78068159880013    2.10218066825032    0.45668657428057
O           2.00073193507885   -1.09029764541147    0.75678850716674
H           1.15140430443755   -1.57104853012957    0.63653340078900
H           1.95110129324235   -0.42475604323286   -0.62833135339054
H           1.76148487027980   -0.35006289093549    1.34376826440894
O          -1.77650016114187    0.65989381927048    1.60208463175633
H          -2.13844960523501   -0.08779299826727    1.07984628720138
H          -0.12762759998501    0.81206537014275    1.85950232080066
H          -2.22837587224812    1.44030696424434    1.27307906059560
N           1.61161610208685    0.11716137866247   -1.50011409847333
H           2.10849058018331   -0.11954979318869   -2.35022517961588
H           1.62376997084401    1.13662044700586   -1.27670816025748
H           0.56794091249447   -0.08436212871601   -1.55824946193402
