    23
        -45.37055025  Gyration_radius:  2.32608271337 Dipole_moment: 2.938
 S          -1.91512789458839   -0.54108296468840   -0.24073266152458
O          -0.95788807690354   -0.04685643647309   -1.22882582635823
O          -1.24215258898981   -1.14530407389783    0.88966422458428
O          -2.94062742573066    0.40925112208193    0.11589602409923
O          -2.66428410466788   -1.73430817834199   -1.00516401899905
H          -3.47928043722238   -1.82127894572753   -0.52042713693258
O           1.43947413150737    1.29538660929313    1.41528886948129
H           1.72732526895605    1.83161701334786    2.15563557014959
O           1.60662891673787    1.29652818612914   -1.35891929770220
H           0.65101748827689    1.20576390298323   -1.48055431415634
H           1.72696183962479    1.44471118292626   -0.40664884001228
O           1.31749305462176   -1.44896413924309    1.38838588761543
H           0.33428097592519   -1.46846683529275    1.38798615781542
H           1.43505988920781   -1.51896729208355   -0.14234818483555
H           1.52527564905854   -0.51303503399972    1.56379814017573
O          -1.05992280001814    2.04212511031798    0.92158979002330
H          -1.78986211326988    1.41277304056835    0.73856620352493
H           0.47987265918637    1.49224134808382    1.29467860001335
H          -1.11617747888324    2.70363208110058    0.22805085961242
N           1.29772739041184   -1.32357607932777   -1.19700719762357
H           1.81510237127933   -0.44991357608747   -1.43785510603607
H           0.28364374537352   -1.01275668587161   -1.28732872405405
H           1.52545951958250   -2.10951936775412   -1.79372900743641
