    23
        -45.37055024  Gyration_radius:  2.3260873656 Dipole_moment: 2.938
 S           1.96165186088324   -0.23153061734433    0.33998165684192
O           1.44959507423357   -0.93791133610955   -0.81538351006443
O           1.07225343791190    0.85930037733093    0.73491608202753
O           2.36793836415444   -1.08717260091593    1.42840338767056
O           3.28874087481208    0.52270859213716   -0.14938134933822
H           3.95691995634801   -0.15216619076120   -0.08019912238682
O          -2.09068428097115   -1.16888108802313    0.10024553036191
H          -2.71484547110357   -1.88830897169152    0.20688876614290
O          -1.75585319488295    1.45115503903213    0.96284052146759
H          -0.85798642959853    1.29700531887620    1.28880170424700
H          -2.09317557536828    0.57137166871638    0.72707662589377
O          -0.74021792816318   -0.56242728723133   -2.21434456873399
H           0.12903835813899   -0.85374334476486   -1.85866765013649
H          -1.37515115526706   -0.87360585979152   -1.54363509771466
H          -0.54385489157998    0.90690971369904   -1.80740654499751
O          -0.15560300029136   -1.63676557059325    1.85640776679403
H          -0.28431585194318   -1.15923614121576    2.67932717763910
H          -1.31915198964023   -1.39168786069858    0.67413326992548
H           0.79918875505968   -1.54502154766385    1.65083190649359
N          -0.32791568643475    1.79790711544316   -1.23422223623668
H          -0.06657495927852    2.59660328625738   -1.79939264360901
H           0.43374267958840    1.50522576040742   -0.55047847536568
H          -1.13373893660617    1.98027154490356   -0.59674318692462
