    23
        -45.37055006  Gyration_radius:  2.32649513531 Dipole_moment: 2.934
 S          -1.50169694075199   -0.99648261252655   -0.87878773775542
O          -0.94177805463735    0.31439615276482   -1.20230863472599
O          -0.53980725562090   -1.82403343099079   -0.18163207533677
O          -2.80338886873575   -0.94685753816682   -0.25806679134829
O          -1.72036624141627   -1.67746366314285   -2.31319752235728
H          -2.36277981699626   -2.35672092447285   -2.13254982994733
O           0.84475302242103    0.64761636389832    2.14781923785694
H           0.93267219257540    0.70454807935615    3.10048500705577
O           0.76423054621713    2.35277321646695   -0.04440808119775
H          -0.06395970853799    1.98424318513554   -0.38267730569245
H           0.88615472910975    1.94134883340500    0.82694474932720
O           1.92692440408627   -1.31691591675325    0.56131831985814
H           1.71963326758276   -0.67984830087761    1.26918044666194
H           1.05445430788896   -1.72046033156406    0.35403772995882
H           1.93473226327256   -0.41548837883151   -0.68346484116941
O          -1.76202722796083    0.46744733449531    1.68230119512293
H          -2.15683435611539   -0.15537208296094    1.03514460468955
H          -0.11145511210750    0.47570433023803    1.97343589082695
H          -2.16170756214939    1.31886777411006    1.49006925653145
N           1.63853160541379    0.29020084184561   -1.44738272036221
H           2.13434766627341    0.17967362978624   -2.32348169395804
H           1.70293591762243    1.25181781612864   -1.04715408684022
H           0.58643121256591    0.16100564265505   -1.54562510719742
