    23
        -45.37055029  Gyration_radius:  2.32646941782 Dipole_moment: 2.921
 S          -0.58174918834247   -1.83127519475447   -0.57202581614722
O          -0.49908647759024   -0.85148066400388   -1.63444356016148
O           0.21434584780866   -1.42912626764895    0.58621974633466
O          -1.92514784244754   -2.24824314563190   -0.25022271337869
O           0.17001682405917   -3.14044720583971   -1.11078616930861
H          -0.50647964990055   -3.58441960591780   -1.61273606051072
O          -0.81137007550511    2.23404649902253    0.31892143106474
H          -1.40507673995630    2.98619523463688    0.30137741818009
O           0.88205426940241    0.94675729839037    2.10730913682640
H           0.30792018867094    1.57148037761761    1.63469337148004
H           0.48361561534671    0.07759072542568    1.95930579741603
O           0.79675270405200    1.42867743813822   -1.75788524686558
H           0.24290536642752    1.92478853916045   -1.12782347844647
H           1.78770304180378    0.72092481010649   -0.81997581710236
H           0.27060786086516    0.61696217201132   -1.93484667715383
O          -2.35052190748086    0.12080945068473    0.77852046096451
H          -1.38728558725678    1.43512441388992    0.38502771881045
H          -2.26181236777511   -0.73093732373224    0.29980992652208
H          -2.38864208627139   -0.11428203968776    1.70847943549913
N           2.20337156939100    0.11586204296872   -0.02605816372399
H           1.51156729707930   -0.68359925005768    0.09892761856861
H           2.09801347856655    0.63684640512010    0.87191218039048
H           3.14829785905339   -0.20225471989882   -0.20370052925780
