    23
        -45.37364154  Gyration_radius:  2.26185794863 Dipole_moment: 5.721
 S          -1.48545619325446    0.12432615947559   -1.01585568910952
O          -0.40738678478428   -0.35458747897892   -1.89521937379992
O          -2.00836863546175   -0.95433186893423   -0.20687714031075
O          -1.08827559396210    1.30069402453998   -0.28262302697859
O          -2.66177338960485    0.56932294825001   -1.97970811185606
H          -3.06689219527142   -0.25949761445573   -2.21523795467429
O           1.00649735250468   -0.24968219639645    2.15453139271136
H           0.06183968950851   -0.13209181620066    2.39478349948752
O          -1.65697207058098    0.13828453641940    2.21292257773735
H          -1.71620071860320    1.05337348557625    1.92449685794277
H          -1.87843334169446   -0.37810294625105    1.41515438731403
O           1.35330805989241    1.82974170647574    0.62967907991704
H           1.86705910548270    1.01162347614239   -0.42623400449325
H           0.42156419358194    1.88743035886821    0.33245431506373
H           1.32237718407619    1.15504078870915    1.36707625668292
O           0.62939846545964   -1.97729235043698    0.00221873511565
H          -0.00084357722081   -2.57537470581640    0.41095343053852
H           0.11496838550741   -1.50342287752950   -0.67544246366491
H           1.00091399413669   -0.94991821584735    1.48076406533989
N           2.04899502565161    0.25026837276631   -1.23425427021746
H           2.70327748427475    0.56499548823635   -1.94188044659647
H           1.08569165175050    0.07261043424319   -1.64297758342991
H           2.35471189855722   -0.62340969884515   -0.80872451271528
