    23
        -45.37364176  Gyration_radius:  2.26187499907 Dipole_moment: 5.715
 S           1.61107432519816   -0.79832214911871   -0.14374973091368
O           0.74184747162446   -1.72456591725159    0.59887252757244
O           1.34147696932106   -0.86443553160157   -1.56311398788117
O           1.58051692361974    0.52708897332938    0.42324556511881
O           3.08705483751520   -1.34000929151175    0.05473193794031
H           3.13367620040172   -2.05872365674909   -0.56801640290053
O          -1.59379506328255    1.58420387394469   -0.81728724257664
H          -0.81077655917860    1.79343998844978   -1.37140209239911
O           0.81935565848930    1.72534968180278   -2.00224557877650
H           1.01142935485604    0.76890131499780   -2.01522888149228
H           1.35936813851386    2.06370042141982   -1.28251746246335
O          -0.52244605861619    1.70305699922320    1.55062171324752
H          -1.01065394639904    0.39726721731645    1.87414229833510
H           0.38009500424376    1.45620339475854    1.26057276446952
H          -1.01026818786021    1.85841039644652    0.69164517848077
O          -1.40925080341727   -1.19185921405810   -0.94873654551063
H          -1.25850206223685   -1.27798494323880   -1.89308122953816
H          -0.56571756973965   -1.45603405649991   -0.53986009192432
H          -1.70182310378026    0.62216771996229   -0.90223821275155
N          -1.26534392268279   -0.69747128861875    1.92283852850064
H          -0.40802432270083   -1.18002711105650    1.52447755905027
H          -2.03577971811450   -0.89084651472031    1.28497593343851
H          -1.47351357567150   -1.01951032739008    2.86135347311946
