    23
        -45.37364234  Gyration_radius:  2.26191626096 Dipole_moment: 5.691
 S          -1.11427287198715   -0.38383789479444   -1.36555486034691
O          -1.99467892208562    0.61336917344152   -0.79803160527451
O           0.07980460667252    0.24347784420615   -1.95328562445828
O          -0.76218583413396   -1.46474976882223   -0.47845171958362
O          -1.90171283192683   -1.03272106259689   -2.57816567446709
H          -2.36009256792574   -0.28779981353188   -2.95428705883530
O           0.33018202941756    0.45793700962192    2.32316801204264
H          -0.61564994494335    0.19506486139436    2.31019616335218
O          -2.15842773347410   -0.35397774999448    1.69393257138035
H          -1.99929357910946   -1.27286419359503    1.46061661092282
H          -2.22777479772242    0.10202426527837    0.83411016445418
O           1.38573723571152   -1.57291246172438    1.08667045565139
H           1.05411850104107   -0.89473220213052    1.74262955809461
H           0.59060334765298   -1.78686266002908    0.55589314110949
H           2.04179267166265   -0.70820258754370    0.15471859091994
O           0.30222300954773    2.05313395314339    0.04097086602471
H           0.07256753859199    1.48772265621080   -0.71806165567975
H          -0.49928257148553    2.54867147898924    0.22540936311208
H           0.40476765554862    1.13277712875956    1.62779656716155
N           2.32351846303164    0.05357681661241   -0.62415833291825
H           3.18493858435440   -0.16944984964991   -1.11004078171704
H           2.36989720752449    0.97440095365766   -0.19089658607279
H           1.49322082406801    0.06595411313823   -1.28517819485799
