    23
        -45.37364199  Gyration_radius:  2.2618418604 Dipole_moment: 5.706
 S           0.16911446946958    0.35720951246832   -1.75987613109598
O          -1.25914587380670    0.49323729290803   -1.43366125495199
O           0.90605998496348    1.53180883764027   -1.34922422015922
O           0.70341225641242   -0.89594534281899   -1.28722958016163
O           0.24753582650397    0.31338553327528   -3.34202099552903
H           0.17021177591289    1.23133086909128   -3.58267812439726
O           0.97080876212781   -0.10759232518729    2.18185173943650
H           1.76123488346352    0.06855818912570    1.62674928884860
O           2.73845422250309    0.34525319626194    0.20241211024222
H           2.17034637187355    0.91756489160998   -0.34692257162629
H           2.72800836610850   -0.50189967613600   -0.25180014072017
O          -0.76172669452623    1.68566772865803    0.94066381282737
H          -0.87047119630315    1.40482570637964    0.01451533922949
H           0.32875747320931    0.57060469344169    1.91316862499156
H          -0.17274780526167    2.44270092556589    0.89688090888541
O          -0.01352193055713   -2.16852673098530    0.93596294379795
H          -1.29060832110613   -1.53269059961051    0.82346010204004
H           0.34806718303585   -1.93142221337953    0.05694187054741
H           0.44017432526042   -1.52858878725410    1.55615685589334
N          -2.16263844321713   -0.85197866953620    0.61836214453562
H          -3.04780411349437   -1.34226830771130    0.55538158971301
H          -1.91102831525576   -0.37887556261446   -0.29781208873651
H          -2.19249319731403   -0.12235915121283    1.32871781635347
