    23
        -45.37364183  Gyration_radius:  2.26186272074 Dipole_moment: 5.713
 S           0.86438708685648   -0.25882541740391   -1.56182046939517
O           1.82979190013475   -0.54374697344707   -0.48860224664036
O          -0.03205008273904   -1.37640646548121   -1.75899808655626
O           0.21890646077493    1.01606252203648   -1.36934711578816
O           1.72033386168084   -0.13518833230314   -2.88961006927555
H           1.87955844107023   -1.04424945808956   -3.12372295886033
O          -2.04912325393146    0.09893542217492    1.22784684988617
H          -2.37898560292081    0.02332699306393    0.30621799671808
O          -2.36199509993843   -0.09535690271869   -1.43895181587337
H          -1.61045969688133   -0.69295649699820   -1.61259062136313
H          -2.04756480783400    0.76681154598120   -1.72514440935207
O          -0.01119524438308   -1.79132882421391    1.04780259206234
H           0.62830815985583   -1.47970637336791    0.38263379479385
H          -1.40558380104066   -0.62385877454122    1.31598642743554
H          -0.50278012917766   -2.48666925554845    0.60425753257814
O          -0.42229058048151    2.11264352491089    0.96780250063156
H           0.64948589610202    1.36512696831069    1.55143381547177
H          -0.21885102966052    1.95079335430634    0.02329563053587
H          -1.18309807694879    1.49081299890695    1.15337107586475
N           1.44339408028820    0.61559455811668    1.82283425338037
H           1.74559631917460    0.21030504210161    0.88953358329356
H           1.01944768731421   -0.14504768259949    2.35152712471508
H           2.22476751278437    1.02292802673892    2.32424464577257
