    23
        -45.37364238  Gyration_radius:  2.26196724694 Dipole_moment: 5.686
 S           1.54656445215919    0.40506781736664   -0.83587787343533
O           2.20442965372123   -0.21557027885721    0.29267651527271
O           0.86492894883544   -0.60138427012871   -1.66478490372161
O           0.66944800741095    1.50090232520945   -0.50541609789789
O           2.69737215496328    1.00560983006036   -1.74509228520018
H           3.38371163003693    0.34933492097647   -1.67622182039929
O          -1.29001214870719   -0.10319177635178    2.01044995124465
H          -0.49517508256135    0.38612825209022    2.31491954775375
O           1.05719688202357    1.19118906268566    2.26167177203563
H           0.88910205264521    1.98201549982050    1.74163310872407
H           1.58122353208882    0.62170204150741    1.66743803938440
O           0.02178793860093   -2.02027424696303    0.47471128587078
H           0.71207312525441   -2.25307946569810    1.10020781973467
H          -0.93486026833935   -0.88785686191538    1.56025458471179
H           0.48809202586050   -1.56035375821784   -0.24614765283151
O          -1.94678142360525    1.33452616523102   -0.05575748335790
H          -1.85762995659046    0.89270676010837    0.83698743450780
H          -1.03829787486929    1.64571009226766   -0.24964236969214
H          -1.96383613901911    0.17808133977952   -0.89798673146527
N          -1.73885700680282   -0.75723889672740   -1.48167933195737
H          -1.84143306837914   -1.56606044171723   -0.87088020967524
H          -0.70626701228523   -0.67493404080721   -1.71271292072745
H          -2.30278042243806   -0.85303006971824   -2.31875037889523
