    23
        -45.37890827  Gyration_radius:  2.28801374116 Dipole_moment: 2.690
 S          -1.13732187786833   -1.18400199444665   -0.27453597600764
O          -0.79617903010908   -0.55308887259933   -1.55316046435336
O          -0.34417585801533   -2.36099412021573   -0.01651223769374
O          -1.11913718743130   -0.20957435369830    0.80165980616976
O          -2.63647460421606   -1.67925277746627   -0.41232741173939
H          -2.51474397681321   -2.60200162966499   -0.61032606266482
O           0.77728196615956   -0.22113977518095    2.71649773905875
H          -0.02019172088158   -0.31975200141188    2.16318857187650
O          -1.53259891618155    2.02632175235451   -1.67808712863001
H          -1.32741127382529    1.07039927448257   -1.72213159269054
H          -2.48412697723829    2.08877475760470   -1.58557764639189
O           2.06891214024209   -1.52615413760601    0.75346665353798
H           1.28216543453817   -2.04628804484398    0.48864730599202
H           1.93946509199062   -0.35856372717226   -0.23715616706803
H           1.82037824468293   -1.14765760671874    1.62206675312067
O           0.13480309653825    2.13394114072904    0.44969177795108
H          -0.40143999447680    2.47851883056829   -0.28804126390323
H          -0.39532756324359    1.37418276147590    0.76365869901213
H           0.89481161412805    0.72292232807954    2.84330014548083
N           1.57806614968854    0.40421234773381   -0.91179197298608
H           0.73217993320330   -0.00581594753843   -1.37734540760567
H           2.27956525304176    0.68972069168549   -1.58618829137191
H           1.20150004607508    1.22529110385058   -0.34899582908954
