    23
        -45.37890827  Gyration_radius:  2.28800469646 Dipole_moment: 2.672
 S          -1.34927426390778   -0.11585954109858   -0.96699080309018
O          -0.92452209838557   -1.03487391792131    0.07373074380542
O          -2.10733484068119    1.01188607527701   -0.48272753258308
O          -0.21092267587394    0.29322607443505   -1.79529521692163
O          -2.32050041831585   -0.92784161313881   -1.92058769405916
H          -2.97297793856711   -0.26838736846088   -2.13290308476960
O          -0.87661177993865   -0.33457046916717    2.67552578096885
H          -1.07591035734248   -0.67012399374297    1.78136058895877
O           1.68763710659474   -1.59813503836723   -1.96627913538268
H           0.98986464291942   -0.91361474420563   -2.01431638302958
H           1.31650594122941   -2.38305169864555   -2.37128102200543
O           1.67328967696326   -1.21435435084185    0.71207506123681
H           0.70677888718561   -1.32602768211468    0.61116060197830
H           2.01480464333605   -1.52062104929043   -0.14819111375720
H          -0.08860911610101   -0.80128588542455    2.96258609838783
O          -0.71151691279306    2.08681328611042    1.51987558135777
H           0.57867727281397    1.74213239418442    0.75893102350886
H          -1.36799474898773    1.87450012831651    0.82445983742525
H          -0.81899343903337    1.36548429512197    2.17380134075236
N           1.31855737237980    1.31967857651323    0.09450968461645
H           1.64321564704383    0.38090157431935    0.47662345776888
H           2.09158539642492    1.95301195748525   -0.07799114211535
H           0.80425202304739    1.08111296066360   -0.78807667304845
