    23
        -45.37890831  Gyration_radius:  2.28801489158 Dipole_moment: 2.678
 S          -1.03865252732143   -0.14306523453118    1.29240615957262
O          -0.85116031197866    1.01155870180883    0.43217913496230
O          -1.96015669777246   -1.12257417256979    0.77048396093934
O           0.25223730773629   -0.73334579256867    1.65863840754177
O          -1.67733753412156    0.39411791570745    2.63983385371182
H          -2.28624995336071   -0.30515636795220    2.85324209148064
O          -1.52787593521321    0.98364082780565   -2.17610582714961
H          -1.46631289990465    1.08331641989379   -1.20755919874691
O           2.23541645700731    1.07415207913473    1.76638263914016
H           1.53640637930470    0.39243768997997    1.83282779923453
H           2.03015230144709    1.72939598704110    2.43455373113553
O           1.49316254587677    1.37040453701713   -0.81823668441629
H          -0.81660406424414    1.51464305189708   -2.54125886750581
H           0.59539161795654    1.44342165224673   -0.43680224435706
H           2.06613804282385    1.45565334506302   -0.03399447720658
O          -1.20521147867630   -1.64783579238477   -1.73301463466820
H           0.25684796390323   -1.49160687956944   -1.28668849992308
H          -1.64231568637017   -1.62311177307308   -0.85668485928449
H          -1.43872111685790   -0.78687774282192   -2.13766761087957
N           1.16862846078627   -1.24101737216915   -0.76374102921442
H           0.91934937224579   -1.23581799489651    0.25510839147182
H           1.43473689515483   -0.23316151845768   -0.97876875289391
H           1.92213086157154   -1.88917155660192   -0.96513348296850
