    23
        -45.37890825  Gyration_radius:  2.28790249543 Dipole_moment: 2.669
 S          -0.58397167256176    1.42644367902442   -0.62685303198792
O          -0.50235309517009    1.04236588011035    0.77100277329288
O           0.63475712299379    1.98941840930237   -1.15489886484215
O          -1.08278407283599    0.31538025799616   -1.44284934995151
O          -1.67810475262259    2.56930669225563   -0.71985579450204
H          -1.29714895520006    3.14429239569673   -1.37540258687119
O           1.85593139080204    0.69245683547200    2.02745270308680
H           1.00927775431813    1.00608262179159    1.65788513207108
O          -2.75089273387969   -1.30079956467465   -0.09548864996278
H          -2.22575718727134   -0.69671809460215   -0.65866120762496
H          -3.51335214919725   -0.79751245019271    0.19291569415220
O          -0.53839330197281   -1.55374403473362    1.44054082247284
H          -0.54429413756810   -0.57595783031771    1.41513768298488
H          -1.42079187468657   -1.78185296242795    1.09406324838806
H           1.63661849806817   -0.04935903516738    2.59564106501331
O           2.60810071971570    0.30931228632211   -0.52454297757121
H           2.61799739751178    0.45599210193207    0.44390297945349
H           1.63263106851025   -0.85890607240806   -0.73760910625660
H           2.05612362380076    1.04184638378740   -0.86847221384432
N           0.75671082760329   -1.48157707999236   -0.84976681509468
H           0.36015260359686   -1.71161520088782    0.11080885329862
H           0.94012071562726   -2.31380871566120   -1.39946728714371
H           0.02942221042536   -0.87104650262803   -1.29548308854583
