    23
        -45.37890778  Gyration_radius:  2.28748055314 Dipole_moment: 2.696
 S          -1.20291047809700   -0.85468175261820    0.76764895120879
O          -0.85338345690365   -2.19712513743364    0.37223132485701
O          -0.28883475207814   -0.31803500285064    1.78059794822006
O          -1.34531839083760    0.07194515881750   -0.34086388626531
O          -2.62430107728600   -0.95054868413462    1.46246571925624
H          -2.65199432607767   -1.86794456179361    1.71375312938837
O          -0.32336250183125   -0.44279082815181   -2.78094832615692
H          -0.86801913300723   -0.32962407773614   -1.97945716845546
O          -0.32394919173921    2.36497357918635    1.88547307538591
H          -0.33934188641718    1.38883036779456    1.95381238990956
H          -1.20718277672793    2.65982764323216    2.11082574261498
O           1.24695158992598   -2.00752627794924   -1.26039715215009
H           1.75663817792573   -0.83388431912371   -0.40944661883626
H           0.50965070546689   -2.30895133115916   -0.69013609540719
H           0.79858576925146   -1.58926455152989   -2.02425007222904
O           0.45881900707181    2.02633755950221   -0.68195527480153
H           0.31603163153569    2.50361032015218    0.15614492429767
H          -0.04447024199408    0.43923845551682   -3.03678215441632
H          -0.30930816290781    1.42185371468719   -0.71747282279961
N           1.84933851113009    0.00302651405703    0.26777914028147
H           1.15644821075526   -0.17448021765276    1.03511353170214
H           1.49799577323296    0.88633556090039   -0.21076953422138
H           2.79191701959889    0.10887784828833    0.62663320861774
