    23
        -45.37890828  Gyration_radius:  2.28826860918 Dipole_moment: 2.674
 S          -1.21947762458941   -1.03131590952970   -0.46811191959002
O          -0.47798917111054   -2.26317391531650   -0.58512447169440
O          -1.06705742580283   -0.36762500077309    0.81433894147809
O          -0.93757356367524   -0.10547339153056   -1.56920674302169
O          -2.75041362310522   -1.42040218950127   -0.59864875562599
H          -2.69458083628838   -2.26893102263086   -1.02582640932976
O           0.95830366863368   -0.94480456881331    2.49543885970426
H           0.11924573503055   -0.86633600254169    2.00381487015944
O          -1.53237316711531    2.44481269320960   -0.97484358807647
H          -2.46971952120474    2.51704240638752   -0.79021160377538
H          -1.38620059907587    1.52525656445821   -1.27621110812518
O           0.28766166726274    1.94172735160600    0.96234819459680
H           1.13744299866201   -0.07193633754210    2.85198193430765
H          -0.28077691583196    2.48273636330262    0.38373083299957
H          -0.25982277449459    1.14639286020243    1.11849373749022
O           2.02875932478777   -1.74153604905080    0.16195255180729
H           1.89349722953701   -0.35383502274459   -0.48463521850440
H           1.86631601863321   -1.59201918373304    1.11622805206091
H           1.19675399203318   -2.14740765548603   -0.15834716760812
N           1.52739913371874    0.56922681511948   -0.91045880046348
H           1.23992327447277    1.23093975494665   -0.12796004852889
H           0.62801953421967    0.32338507740333   -1.39106945180563
H           2.19266267530094    0.99327633256858   -1.54767267845153
