    23
        -45.37890803  Gyration_radius:  2.28777984306 Dipole_moment: 2.649
 S           0.02238872843492   -1.47004010022956    0.77898936948614
O           0.53433549363661   -1.16018753036490   -0.54413521873201
O           0.94438483131727   -1.17898723959336    1.84954211179170
O          -1.28813575208064   -0.84746573570938    0.98784345831273
O          -0.22117849365590   -3.03580907699365    0.81580966520978
H           0.05873782936067   -3.25082558277648    1.69957454475049
O           2.63606306108737    0.48258898223739   -0.92309966000031
H           2.01544197241439   -0.26052287084603   -0.80256700422446
O          -2.69306902363253   -0.59723100362820   -1.28703211713555
H          -2.26628118915065   -0.74770932811593   -0.41929941193421
H          -2.84898400971404   -1.46609521848687   -1.65938713817547
O           1.79018242003881    1.32472122062080    1.48524569584851
H           1.61049939535580    0.41984591506986    1.81449650187064
H           2.32417966666633    1.18019669238674    0.67686713578115
H           0.38749194643146    1.68870416180210    0.97288084515382
O          -0.51800705495821    0.87571748060077   -1.93540536836133
H           2.36162591311620    0.92710149960118   -1.72823990586014
H          -0.03005408353660    0.08945347058620   -1.61841243454374
H          -1.43136082855855    0.54352367858995   -2.01238293107385
N          -0.61570086695449    1.67006044530635    0.57217108448989
H          -1.03215870144277    0.76213449487044    0.89254927807263
H          -0.57231629190852    1.58481843353723   -0.48780777668232
H          -1.16808496226297    2.46600723156780    0.87179926596529
