    23
        -45.37890829  Gyration_radius:  2.28800365402 Dipole_moment: 2.679
 S          -0.93608303375889   -0.71709501166756   -1.17438100212536
O          -0.55955873726830   -2.09769800274742   -0.99224669700050
O          -1.38905303000939   -0.06133910143872    0.03930790117834
O           0.11837435443111    0.06594019447459   -1.82554050253937
O          -2.16570948066290   -0.72033978707454   -2.17431959542963
H          -2.07039313060792   -1.57139749447253   -2.58922826684773
O          -0.85893014038654   -1.05013588672344    2.48944168912095
H          -1.23123884442872   -0.78784278346600    1.62664252758387
O          -0.12052021415462    2.70525719018901   -1.39207125637562
H          -0.95446468992123    3.01068175832671   -1.75142638048739
H          -0.03917476494360    1.76694075212389   -1.65805713996706
O           1.12656818711116   -2.17947348979697    1.07272355594985
H           1.69780036270188   -0.82861186162104    0.61432215857822
H           0.49272299642071   -1.95630987546230    1.78545130730406
H           0.55508314545810   -2.38014263080759    0.30281985447982
O           0.12297873813651    1.84701091007007    1.16195354423104
H          -0.57869306042234    1.21756703935570    0.90073168766986
H          -0.71808852373326   -0.23407460613682    2.97462872975933
H           0.11900353346113    2.48823524640148    0.42750167693161
N           1.85617632811974    0.13862675963901    0.15936487781320
H           1.35833500121792    0.10326413130525   -0.76319271161875
H           2.83985621441937    0.35955291955785    0.04985496652161
H           1.33500878881954    0.88138362998636    0.71571905526920
