    23
        -45.37890826  Gyration_radius:  2.28817657719 Dipole_moment: 2.673
 S          -0.42610097647649    1.52296015176171   -0.51680725126565
O           0.80850614464329    1.93359105674746   -1.13979390623764
O          -0.93780205553976    0.25158258065708   -0.99627659423206
O          -0.33993284118863    1.52995581083019    0.94659648154491
O          -1.50382544484210    2.61970965132825   -0.90125516189343
H          -0.94925846603799    3.35551293997995   -1.13909720538441
O           0.61252110577499   -1.51002648974528   -2.32075541324999
H          -0.00717575845212   -0.81519447036100   -2.02909876623998
O          -2.19338124143454   -0.02408954110492    2.11305971271404
H          -1.56028054011856    0.62618967374879    1.74675851309886
H          -3.06616983331363    0.29957100911780    1.88630487536013
O           2.48959864917332   -0.13059560546266   -0.97918987227546
H           2.03718826749404   -0.73357877960933   -1.60461174925969
H           2.05917715268652    0.73573022285823   -1.13368145468500
H           1.89055552002945   -0.46388162601230    0.39634263962600
O          -0.91447582081780   -1.88504760102595    0.62342064415313
H          -1.04378538025294   -1.23770787295938   -0.09836102211137
H           0.26303292841412   -2.33558909287980   -1.97803730396167
H          -1.50057312299773   -1.54400709119544    1.32405185828562
N           1.25768819584817   -0.54608012686343    1.26821240905144
H           0.50319080552398   -1.27566018757254    1.09080392457480
H           0.73654920646600    0.36226259755883    1.32778884590181
H           1.78475353543337   -0.73560720979618    2.11362579649892
