    23
        -45.37890776  Gyration_radius:  2.28742466148 Dipole_moment: 2.673
 S          -0.61986003318302   -1.46964614178227    0.47282447793268
O          -1.65082780416913   -0.74311780910877   -0.27447389753500
O           0.14709641080241   -2.35315710095125   -0.37100667444735
O           0.18630739598587   -0.55444317141817    1.26061233138853
O          -1.39061354749567   -2.39560920243179    1.50258686275594
H          -1.37999375081398   -3.23292714705645    1.05046777735907
O           2.75683494432224   -0.01790580841541    0.65487968204677
H           1.90883432709605   -0.34681219615395    1.00778740263338
O          -2.46767772848672    1.48190044403769    0.98784097901727
H          -2.83407697628715    1.24280249151207    1.84014095984104
H          -2.27652775691592    0.63843582157125    0.52978719478948
O           1.85497221483403   -0.83187011601626   -1.74279284419043
H           1.32034254234724   -1.56329889531319   -1.37018660600290
H           0.77344395485417    0.25753183549974   -1.81274181947508
H           2.43625181014738   -0.56268863478207   -1.00167959485955
O           0.15722953339858    2.06609557249762    0.69454417860365
H           2.79029966308573    0.91534795469305    0.87691461643439
H          -0.78695928901802    2.24112203971238    0.86364685254882
H           0.28210573854974    1.17539678936596    1.07910470954357
N          -0.09014227877682    0.88483053330568   -1.64456059793833
H          -0.84266155254200    0.24374289694127   -1.29368914244484
H          -0.37689926038926    1.38249593947949   -2.48034558208063
H           0.10252145265215    1.54177390480807   -0.82966125592324
