    23
        -45.38087032  Gyration_radius:  2.27626081736 Dipole_moment: 2.847
 S           0.63407874517779    0.96386648657205   -1.29295334864530
O           1.61325578925945    0.80686766420027   -0.23089223333974
O           0.51751024495411   -0.24288472059617   -2.09690233656890
O          -0.65507400574714    1.43578021331915   -0.81787081189721
O           1.17977512754167    2.10753011138093   -2.24199155346937
H           2.07642091147124    1.83812446016198   -2.41172819321668
O          -1.40825025727540    2.24200477975199    1.61151221574138
H          -1.12600236680227    2.10238591491694    0.68561463108469
O           1.72828767240498   -1.94097031246417   -0.52233382835641
H           1.30725988020720   -1.42677141696693   -1.25040435700593
H           2.29709095764891   -1.28957474214506   -0.09659542501845
O          -1.93068970853069   -0.85287321303237   -0.95011981199356
H          -1.62203200720041    0.07866836694282   -0.89646572828030
H          -1.49685504502102   -1.17715735753478   -1.74693098053823
H          -2.36641228073352    2.22458873300574    1.60250448769593
O           0.45845713319200    0.36633573150988    2.13169139530199
H          -0.14000564039177   -0.95086812438523    1.60113330968347
H           1.00560860094039    0.61515722636150    1.35632907492966
H          -0.21756519770286    1.06973081088237    2.18457153233213
N          -0.41838109367182   -1.81247155343556    1.01595511773384
H          -1.14775002798682   -1.51370875820181    0.31194060618895
H          -0.73829381082320   -2.58141900454425    1.59333401964465
H           0.44956638908145   -2.06234128568386    0.46060220800223
