    23
        -45.38087046  Gyration_radius:  2.27622944194 Dipole_moment: 2.853
 S          -1.72592343379435    0.05901442429973   -0.15104974161277
O          -1.55804992271033    1.50351094760280   -0.18982184954179
O          -1.12158839599178   -0.58121900678229   -1.30704883908302
O          -1.29141936434512   -0.51237822098260    1.11190045145382
O          -3.27949665295027   -0.23348184439865   -0.23591280495093
H          -3.49844530700101    0.01970993476595   -1.12651221586989
O           0.24323092067218   -2.63860878789379    1.60537447460180
H          -0.44152274608027   -1.95520398796028    1.46197394137086
O           0.29226568041956    1.68346182669088   -2.02632505586271
H          -0.43883977818885    1.79602224049602   -1.37474273451048
H           0.05058140240729    0.87139787618244   -2.48603812225199
O           1.23002492141836   -1.69222076495696   -0.71888465564395
H           0.34693867576064   -1.41939658487789   -1.04775132531076
H           1.80505680895966   -0.30539567222768   -0.37190480293653
H           1.03705358751214   -2.20965685375343    0.08711542088103
O           0.36420337938512    1.40138947939850    1.80413165423433
H          -0.24932919272026    0.63789700207506    1.72303629029130
H           0.52160226398067   -2.54832516974400    2.51793665538999
H          -0.15479049210196    2.13214105546465    1.45072339105367
N           1.97177220976534    0.74758745933978   -0.21122721040264
H           1.47711474409940    1.02952457086903    0.67911533508003
H           1.46190967021119    1.23299387451389   -1.00407250042288
H           2.95765101128367    0.98123619187891   -0.19001574595603
