    23
        -45.37184879  Gyration_radius:  2.26809059274 Dipole_moment: 3.137
 S          -1.47249694711001   -0.87972666804896    0.47303800983022
O          -0.52999488083315   -0.64385696804893    1.56286898302720
O          -2.27329773238607    0.28994596536555    0.17335115390434
O          -0.80335863329356   -1.44184860841046   -0.68634332941746
O          -2.49720224136442   -1.97509485873408    0.98383810630869
H          -3.27826417455140   -1.45898107126631    1.15591444382493
O           1.16735131753660    2.03596802689169   -0.11335525943032
H           0.45200631499834    2.29967678376154    0.51584523139437
O          -0.91725425690655    2.14426920869952    1.51956304047330
H          -0.65976160815698    1.60386208423414    2.27153236019217
H          -1.51957999013944    1.57195913211452    1.00242597621225
O           1.85787049344888   -0.12739809251299    0.90083255839257
H           0.94363480474054   -0.39590107203355    1.26276566067648
H           2.00844064488484   -0.76908040473678    0.05257960078984
H           1.67645464700627    0.84583172838975    0.48918174144949
O          -0.44344090563805    0.89320087213469   -1.90485611987861
H          -1.28845967082751    1.32826728511807   -1.76070594939828
H           0.68390370011966    1.71533603983765   -0.91025230511654
H          -0.57955742238625   -0.01384264869057   -1.56826737465253
N           1.94239254001572   -1.61315529616290   -1.14598545777991
H           2.16404160545029   -1.12173495459278   -2.00260344874212
H           0.93424977707105   -1.79002953385641   -1.13287357359214
H           2.43232260831597   -2.49766695945331   -1.13849405845827
