    23
        -45.37890804  Gyration_radius:  2.28773239974 Dipole_moment: 2.691
 S           0.72258372248755   -1.39323387913143    0.55119818223325
O           1.29815253790346   -0.91266474142955    1.78349270030785
O          -0.73219137032214   -1.55113176395597    0.64186244436658
O           1.08394253605721   -0.61062534399434   -0.61706579806456
O           1.31103128098528   -2.84688024053649    0.32183364721432
H           1.57885399375226   -3.08520022210082    1.20331479840149
O           2.07364385534098    1.88820008073300   -0.42210436855096
H           1.91329365356080    0.92970002784985   -0.50844392963917
O          -1.92559782639329   -1.56209288295342   -1.76356064349141
H          -1.59291672683335   -2.29890540195361   -2.27762410056875
H          -1.53567762744697   -1.65741408769759   -0.87098550019739
O          -0.77285699291150    0.88440781885697   -1.84497471359379
H           0.02794117806676    0.39249701400406   -1.57398883594487
H          -1.38201359790126    0.17105068102791   -2.11054851131880
H           1.66099521752885    2.29454953026115   -1.18746811925078
O           0.77046851910807    1.69812460598682    1.92139103474440
H           1.35180318570771    2.00165943664082    1.19383177022506
H          -0.58705097665306    1.42317001591624    1.25563293042420
H           1.05783117425571    0.77586092122461    2.08408853321782
N          -1.41390986403192    0.99738955386407    0.70558310377619
H          -2.31207548093828    1.34030085937455    1.02826548152612
H          -1.32721018664426   -0.04151197117197    0.82202090284388
H          -1.26904019473266    1.16274999916949   -0.33575100866060
