    23
        -45.38083567  Gyration_radius:  2.27607283822 Dipole_moment: 2.720
 S          -1.72326542186139    0.24032916205745   -0.02124852502834
O          -1.46315811219828    1.15545716037371   -1.11914105210199
O          -1.38339519203086   -1.13126716963055   -0.36518771807016
O          -1.10472688507651    0.69056007436614    1.21532773007771
O          -3.28413172555660    0.23773042028642    0.24762073276719
H          -3.58921292616953   -0.46972333608001   -0.31059795924383
O           0.36517814679878   -0.64607824768766    2.99255324854118
H          -0.29016025378821   -0.16896499588921    2.44489969223786
O           0.02218244147084   -0.36548018804410   -2.63391935045487
H          -0.57279356419454    0.30458728963223   -2.22224079012098
H          -0.34814370003697   -1.20213001222892   -2.33163489980389
O           0.97098744341171   -1.85565557658000    0.66085396183146
H           0.89516270526835   -1.58830357483993    1.59778274017785
H           0.06187185328468   -1.75513789443900    0.30676413663662
H           1.68403558005261   -0.77205993378256   -0.17434706050468
O           0.77154618963044    2.18934067915174    0.15607011079428
H           0.82029206444191    0.02393142541229    3.50492054469349
H           0.25012347077992    2.53276682077082   -0.57750216131977
H           0.10107652200770    1.72141851862306    0.70190625204281
N           1.93844846818663    0.02395586843447   -0.85453979444154
H           2.92409385847506    0.02694438480295   -1.09018137558615
H           1.63013831513610    0.93864662947347   -0.42348949411959
H           1.32385075196563   -0.13086753419169   -1.70466894900512
