    23
        -45.37184521  Gyration_radius:  2.26815683771 Dipole_moment: 3.115
 S           1.53453495647201    0.89732005814277    0.06626147529905
O           0.81724913312722    2.14577806129911   -0.09402647897704
O           1.17961585865613    0.21081713577589    1.30567230213011
O           1.42616098828319    0.00844751706204   -1.07586447335821
O           3.06315929329598    1.29624732218831    0.18618057424994
H           3.01748834256026    2.21729786667062    0.42188961773873
O          -2.30062698389788   -0.07082716417076    0.46870306130469
H          -2.05007753125856    0.70162917136856    1.03233642061045
O          -1.05067511458752    1.86228447234813    1.78161848384210
H          -0.51694632695583    1.39927927759094    2.43323817206618
H          -0.41694524753732    2.10911391383867    1.07782088597986
O          -1.03907170525057    0.76307880356580   -1.72697037285354
H          -0.99260078267230    1.71671238114453   -1.61457592523934
H          -0.11732825115236    0.46220536079541   -1.60814203316326
H          -2.00517715524469    0.18329505527626   -0.43678332258471
O          -0.50356218115138   -1.66788961306252    1.10467489005934
H           0.22858208011228   -0.97768219781023    1.27063844986917
H          -1.35899615110655   -1.06152968001337    0.87926700937405
H          -0.23137378838818   -2.12930460452037    0.17509199561949
N           0.22533456117918   -2.50823494900390   -1.16947496806169
H           0.76531412080334   -3.35682353942811   -1.27329899849591
H           0.83418936725416   -1.70289159967502   -1.33751242098146
H          -0.50824747255411   -2.49832304937408   -1.86674434445904
