    23
        -45.37184354  Gyration_radius:  2.26815123713 Dipole_moment: 3.102
 S           1.11830616729894    1.36799140344106    0.20717193860766
O           0.78045557225775    1.85059521884858   -1.11629105967418
O          -0.03054906552953    1.38281196731375    1.10950620762859
O           1.77239157355394    0.07270361950137    0.21051692464852
O           2.16692140111758    2.40471356307491    0.78603264554435
H           2.00255696732429    3.18047816288646    0.25954727428192
O          -1.98943012146183   -0.83789300520188   -0.92409163842196
H          -2.15141371617787    0.12828207019577   -1.05587894381047
O          -1.87703581193231    1.80913678098193   -0.97436205633403
H          -0.91988898883345    1.89483022984919   -1.16034880295974
H          -1.96670314099376    2.06766182145467   -0.05299866389209
O           0.48157177476359   -0.84824400771152   -1.92383150057739
H           0.49399299056892   -0.08572067491359   -2.50918024752415
H           1.04910940202266   -0.58410928639473   -1.17382217773868
H          -1.13791265170455   -1.00758084529174   -1.39107799376842
O          -1.21967505525079   -0.82580376841905    1.44036583693504
H          -0.76341770356538    0.08622052224018    1.42287912597076
H          -1.64810741228902   -0.89980007872788    0.45963204515405
H          -0.41165640874531   -1.53035846651471    1.44943675251148
N           0.82139408214798   -2.31735781013925    1.29314744286875
H           0.76974239075334   -3.01385806753472    0.56057450799115
H           1.23387560407777   -2.73646120249397    2.11574727398777
H           1.42547215057637   -1.55823816643683    0.96732511856799
