    23
        -45.37184528  Gyration_radius:  2.26820402317 Dipole_moment: 3.115
 S          -1.06612192074301    1.11737509030487   -0.88263860798861
O          -0.52905546253166    0.02594179060981   -1.69137529400191
O          -2.18907535771984    0.69642148127102   -0.06982905025500
O          -0.01577203670728    1.78111295904255   -0.13266728002889
O          -1.64895208838247    2.19017436915609   -1.89245352534150
H          -2.58327596224590    2.01044201419976   -1.86659773316543
O           0.26362340530351   -2.03735716455148    1.13837021371601
H          -0.60529218013729   -2.21370705690908    0.70115537432838
O          -1.96741767454031   -1.94734024032349   -0.28858848125169
H          -2.18078249218637   -1.00413089633008   -0.13759706698765
H          -1.66761749096566   -1.98230966180234   -1.20113514750577
O           1.53770381276062   -1.12407029068806   -0.79217926559986
H           1.07154802226886   -1.61114358215564    0.04189867752348
H           0.75194583538423   -0.67713503623885   -1.26433509691812
H           2.09436264748829   -0.31040903615159   -0.36922521650370
O          -0.38399592516878    0.36763009066647    2.08894832518366
H          -0.21010093230794    0.97819635654374    1.34642049720059
H          -1.34289031884318    0.33755777928576    2.15067966358067
H           0.11036807789981   -1.21507947665048    1.66014106388029
N           2.60885396108599    0.91660574848273    0.25571356525317
H           2.78394210901980    0.82593278221776    1.24846944078216
H           1.77197733805440    1.49260706315751    0.13193567228725
H           3.39602463321965    1.38268491685777   -0.17511069816785
