    23
        -45.37184512  Gyration_radius:  2.26817916159 Dipole_moment: 3.120
 S          -1.35629078912114   -0.52260520656710   -1.02531063421032
O          -2.06078018881190    0.70835330245912   -0.72999519256096
O          -0.10792660605420   -0.28585336844386   -1.74583086376716
O          -1.14103020407270   -1.36778864226251    0.13466287044320
O          -2.30286477926466   -1.33144844644569   -2.00511037727158
H          -2.88012507395840   -0.65293899837722   -2.34046641580646
O           1.31160959586087    1.75574726301570    0.84546607722383
H           0.85969486410054    2.23816091445567    0.11057826530443
O          -0.14627340283468    2.48515521873177   -1.24415265630251
H          -0.94181740840929    1.95272396199314   -1.04029173757434
H           0.26130496024378    2.03266393062804   -1.98773719924319
O           2.00819529792293   -0.30608837272761   -0.35857728661123
H           1.82989912551818    0.60540881844080    0.17680974948359
H           1.81838463078287   -1.09086166779805    0.34861662255455
H           1.22072942372116   -0.34962517647159   -1.00505043660956
O          -0.89518113930781    0.64784836854747    1.85144405717103
H          -1.59705145923672    1.23988079407479    1.56666563205670
H          -1.02930340291650   -0.15820642655832    1.31610882459461
H           0.57312520687410    1.40404333045410    1.39552753974656
N           1.29416503181838   -2.09221207382470    1.28688550014219
H           1.65282789796459   -3.03611466297418    1.23335025786914
H           0.32313030207952   -2.08559636916812    0.96342358192220
H           1.30557809710897   -1.79064650118542    2.25298381144972
