    23
        -45.37184459  Gyration_radius:  2.26815485675 Dipole_moment: 3.111
 S          -0.47125301990846   -0.85740302166529    1.48645910167196
O          -1.86411252414992   -0.56036161469084    1.22105484294399
O           0.11800007301498   -1.70883876161257    0.45607647532938
O           0.34421712046768    0.31909732486495    1.72511502261510
O          -0.46187584748399   -1.69482680643045    2.83133811990622
H          -1.35689183444579   -2.01489974024228    2.88051830985600
O          -0.51680658356637    0.61590118288362   -2.20709227652136
H          -1.19117064140366   -0.09574203450552   -2.08133173506064
O          -2.04499856465847   -1.35613395742297   -1.31287602895362
H          -2.12972115558938   -1.04603003554341   -0.38844582878898
H          -1.45199445587005   -2.11065255278115   -1.25934535854545
O           1.49715263561976   -0.53751506724126   -1.31274983587854
H           0.68864665073967   -0.03771775493635   -1.80846038152310
H           1.99974761659864    0.22691445305594   -0.75147517250233
H           1.02075532076463   -1.09986688980519   -0.60787469456483
O          -1.02673516765392    1.89284062617675    0.07745415082054
H          -1.93517791094553    1.64935162429275    0.27651135802026
H          -0.49821263664517    1.41683010619589    0.74706555899012
H          -0.69818294503615    1.25399704703691   -1.47798408299696
N           2.46345310598354    1.26624932561221    0.17736324174555
H           2.25305790419842    2.20795668150747   -0.12819725221748
H           3.42126880858198    1.23201725239412    0.49966889623472
H           1.84083407140624    1.03883264286363    0.95720757939375
