    23
        -45.37184525  Gyration_radius:  2.26830741085 Dipole_moment: 3.125
 S          -1.38638047578126    0.68187491142715   -0.87991184571522
O          -1.47310686017924    1.76273501126822    0.08080244465677
O          -0.12834091598408    0.70123413724138   -1.62189719408513
O          -1.64068070530059   -0.62923359846698   -0.31184278931792
O          -2.54080218293750    0.95165841198301   -1.93086290583204
H          -2.73155453200666    1.87400396385635   -1.79416503298851
O           1.91418057269981    0.36294983155132    1.31295362972265
H           1.77153313995537    1.28505455449245    0.98670948279867
O           1.06382337154940    2.56922413621872    0.11592269505370
H           0.10343763950633    2.39554147357804    0.18923594463721
H           1.26307327087180    2.42712507247967   -0.81355940889650
O           1.66950467096207   -0.88942815048955   -0.82157671349675
H           0.98476371923895   -0.27090530914261   -1.25568548090966
H           1.89245031579563   -0.39137565802616    0.10172874120344
H           1.10676999023300   -1.76007390959447   -0.54531826386386
O          -0.60665814419764   -0.05886601943353    2.07030785912749
H           1.06688132345913    0.12943050995678    1.75951055430186
H          -0.94791413897905    0.82562992409347    2.22964356545052
H          -1.06039680053071   -0.34808110661384    1.25494185286757
N           0.13389001849712   -2.77269872170348   -0.11135421856953
H           0.02786738579180   -3.60822042285467   -0.67093233997674
H          -0.70876527583850   -2.19942997513527   -0.20558482767248
H           0.22642460318283   -3.03814905671383    0.86093426151125
