    23
        -45.37184484  Gyration_radius:  2.26811077307 Dipole_moment: 3.108
 S          -0.72288915703917   -1.19368062939433    1.10352264334741
O           0.73160061394830   -1.09067720109862    1.19080832505485
O          -1.39190643083357   -0.12939051071698    1.82360341395332
O          -1.15771237694088   -1.33306606638152   -0.27399653032343
O          -1.13136919742348   -2.53305754660736    1.84477599307165
H          -1.42052346060565   -2.21773606993081    2.69495081301413
O           0.85981661445814    2.16052105521612   -0.32814813288293
H           0.85647837560837    2.14202814885543    0.66024745645164
O           0.65393785590707    1.52327932246325    2.23565672400748
H           1.33703856323133    0.86084428864334    2.37123311206221
H          -0.17662710683659    1.00900854898515    2.17561154740397
O          -1.63014975507474    1.25866883679492   -0.63438301462740
H          -2.06270202573766    1.50011022775373    0.18950399955688
H          -0.07582073827127    1.97564107835440   -0.57770011898721
H          -1.54549900113526    0.28668477427660   -0.58535733539786
O           1.90217939782363   -0.04831878686594   -0.79572048744111
H           1.33795240379367   -0.42572750383345   -1.62645496346258
H           1.55248298751007    0.95507874810283   -0.64967892040375
H           1.52586143388500   -0.54172793107415    0.01355389216654
N           0.35339900533990   -0.94380463590873   -2.58709308325365
H          -0.33533138586393   -1.27806994555145   -1.90782372657011
H           0.62352323315368   -1.71154583426715   -3.18718552419596
H          -0.08373983888752   -0.22506238781414   -3.14992609255306
