    23
        -45.37184280  Gyration_radius:  2.26809477634 Dipole_moment: 3.099
 S          -1.40815495410960    0.67345490530311    0.85484160666290
O          -2.29291651300462   -0.14088058038913    0.04698043529879
O          -0.52328728049762   -0.13565873197571    1.68973157710008
O          -0.65992125749874    1.65803545252944    0.09585767090028
O          -2.34982646349970    1.48291692072786    1.83852262352836
H          -3.13871186617627    0.95051205779972    1.85366889131786
O           0.99368034672605   -1.82335386199555   -1.09539104011632
H           0.24239418905918   -2.29438084481928   -0.65846458028659
O          -1.13406902482007   -2.52084915834220    0.32123639731228
H          -0.85073764563931   -2.42787884000802    1.23495306150220
H          -1.67206247190139   -1.72134203211281    0.14948069655710
O          -0.46758529976155    0.16832232664345   -2.09851916830476
H          -0.53512954754601    0.81307980747685   -1.36774389749063
H           0.55986602001139   -1.12156871436466   -1.63485305185438
H          -1.35029184918418   -0.20660603632128   -2.16509238659626
O           1.82864823695494   -0.47545707535941    0.82039620676581
H           0.92956102476168   -0.33413183473137    1.28052898765070
H           1.57950017664109   -1.11410114010210   -0.00453270396340
H           2.05853249703235    0.47570934069024    0.38095693041877
N           2.10303038965868    1.79277719817832   -0.27060102048355
H           2.30629603271429    1.74966647547793   -1.26119431607371
H           2.66698746589088    2.51976319341452    0.14880917336698
H           1.11419780419257    2.03197116227264   -0.15957207320308
