    23
        -45.37184660  Gyration_radius:  2.26820847807 Dipole_moment: 3.125
 S          -0.79074991390365    0.80908813766316    1.37286380568321
O          -1.44443523765577    1.02240837790394    0.08442169928805
O          -1.12012166904285   -0.47844831153358    1.94975601388318
O           0.63557807472493    1.06403824336093    1.28587084698178
O          -1.38467449868378    1.88660440382971    2.37095774965166
H          -2.00128321362243    1.37318699278499    2.88299975904380
O           0.08110566701691   -1.83137344733080   -1.46957247328584
H          -0.82261056002906   -1.97139975916535   -1.09414927705527
O          -2.21781985453180   -1.67346074023497   -0.16099579019490
H          -2.65351118283348   -0.90451515681067   -0.53879897473919
H          -1.86127282780002   -1.35666888386098    0.69361970307627
O           1.30388819839224   -1.47572909262203    0.87275585344731
H           0.67304460789748   -1.82440240918676   -0.68137600600852
H           1.16866968360876   -0.53006551049291    1.07750407675420
H           0.73693576448574   -1.93618397871109    1.49783548211858
O          -0.03611293113146    0.60074542960812   -1.97529258776138
H           0.02855544480431   -0.46550968055727   -1.88039259119544
H          -0.65451350301308    0.86140737005893   -1.20756069686614
H           0.92731238033393    0.96976430516555   -1.68005059606246
N           2.16773297340781    1.40143114474459   -1.02121556969100
H           1.80179995540897    1.45757556358421   -0.06699210236834
H           2.56120476454522    2.29728560335596   -1.27631871540891
H           2.90127785765144    0.70422140848808   -1.03586961930604
