    23
        -45.37184675  Gyration_radius:  2.26820930941 Dipole_moment: 3.129
 S          -0.53270700633124   -1.11577531582949    1.27902119099507
O           0.53905730006925   -0.20620694142266    1.67493976265555
O          -1.83270963035975   -0.47669535037991    1.30254190350421
O          -0.22562230394481   -1.77226326983889    0.02134377346104
O          -0.59810996342897   -2.25258130583562    2.38074819695637
H          -1.35397808566350   -1.99282205535365    2.89778891287346
O          -0.10777677036539    2.13986545126996   -0.96476754823897
H          -0.52774263217318    2.33969867525013   -0.09252047839506
O          -1.10010130297065    2.07586180457443    1.49182699442108
H          -1.51124360047041    1.18899551014174    1.44407210419180
H          -0.33140780481101    1.95395545624937    2.05578569188074
O           1.87365277588272    0.84526923841984   -0.20061881815818
H           1.10095141411590    1.48748363893815   -0.57466927979782
H           1.44002318656934    0.41836179329011    0.61742722847188
H           1.94605203371460    0.04533800894928   -0.91321185795615
O          -1.56173269962488   -0.03434813980498   -1.48311830787441
H          -0.66224070958101    1.41715104088311   -1.34138528086936
H          -1.09669265426795   -0.75613780422783   -1.01711564993214
H          -2.36328171541645    0.10050371718928   -0.96978623317818
N           1.80242227093377   -1.12897409832807   -1.78275860308288
H           1.38998734776819   -0.92112614938561   -2.68336115459233
H           1.10685726570947   -1.62877296272629   -1.22233454255048
H           2.60634328465345   -1.72678095203342   -1.91984800478986
