    23
        -45.37890827  Gyration_radius:  2.2878222706 Dipole_moment: 2.671
 S          -1.20129041492018   -1.06824815203239   -0.42962322700573
O          -0.44615797498350   -0.70128761425242   -1.63138744220604
O          -0.70075391912802   -2.27364617808491    0.18468831310764
O          -1.30481963068318    0.06045985551568    0.47788780754258
O          -2.67379922322315   -1.39556275615507   -0.91593739439868
H          -2.65634046696134   -2.34636436701783   -0.94925313002336
O           0.00746860723183    0.13315270267054    2.83058087190595
H          -0.62538120402282    0.04238607759475    2.09364055374422
O          -0.71124739773283    1.89195035042213   -2.27627781043286
H          -0.65428241673324    0.92421041394474   -2.14203343158484
H          -1.63331722039731    2.08037840973493   -2.45571666049062
O           1.53608083486221   -1.61872860698090    1.48166147533909
H           0.77123231151046   -2.07727178358464    1.07626094918307
H           1.85364428628444   -0.62077354047158    0.35670180058839
H           1.13622269223970   -1.07700448770401    2.19309754970661
O           0.35389251452538    2.14804958816730    0.19746176233174
H           0.08611085787009    2.42861182604309   -0.69704148248523
H          -0.35286407530222    1.51882930655366    0.44523323880251
H           0.23637681592728    1.06450200571246    2.86788518145549
N           1.80410172582247    0.05913521525866   -0.48154608747463
H           2.69172633641210    0.14462933334671   -0.96451283450227
H           1.43095378452459    1.00028364665703   -0.15306566212833
H           1.05244315687575   -0.31769126532879   -1.10870435100759
