    23
        -45.37890823  Gyration_radius:  2.28778491241 Dipole_moment: 2.687
 S           0.85840845870109    0.02127852333936    1.42571864947086
O          -0.41612279567543    0.71533312974589    1.63316017036585
O           0.78683779881973   -1.37372484585798    1.78602169633285
O           1.36377229573122    0.26214746121057    0.08602213365000
O           1.89172937550958    0.68669973632294    2.42641565278696
H           1.89288110254356    0.06070731540727    3.14318013647455
O           1.42503571292422   -1.66789884186444   -1.79393292512915
H           1.60013738654881   -1.02141018207741   -1.08456417326303
O          -0.61921583967265    2.97374953760548    0.19474237944096
H           0.07500831703817    3.57937768208414    0.45783021375447
H          -0.56130789067350    2.21354681241986    0.80841813795413
O          -0.50394992666397   -2.62410803657658   -0.18483470227986
H          -0.03348019211448   -2.37886753059288    0.63865672313072
H          -1.38861659917035   -1.37800677561157   -0.34699458363549
H           0.17965689014614   -2.53954332398056   -0.88133984024944
O          -0.28902257083646    1.18834464977049   -1.81092792906464
H           1.20727770275648   -1.15145462848978   -2.57308161742576
H          -0.52408813911173    2.03957371847795   -1.39778245341311
H           0.46991328612925    0.89027628107281   -1.27054039198270
N          -1.79903206152799   -0.37863165703676   -0.33015281940303
H          -1.34857513698292    0.20217507540924   -1.09998176917029
H          -1.45573471503361    0.05447453027480    0.56140828278093
H          -2.81151243935366   -0.37403865102151   -0.38744098109050
