    23
        -45.37890703  Gyration_radius:  2.28759286859 Dipole_moment: 2.723
 S          -1.63606894489245   -0.27413182286661   -0.12388578547122
O          -1.94963229920422   -0.56726982781859    1.25318292873439
O          -1.38017630179680    1.15291194385294   -0.34290396380378
O          -0.56117205808757   -1.08095411054291   -0.67246196077167
O          -2.93534381345012   -0.62282080384029   -0.96166882533202
H          -3.61244795615630   -0.56519110695953   -0.29560925640545
O           1.17248497197738   -2.42068669328115    0.89751806066725
H           0.44789251039678   -2.11777926608559    0.31874580991421
O           0.03828494200748    1.62085114403012   -2.57438624722486
H          -0.55635576560014    1.51636327518742   -1.80413080363426
H          -0.45044658054694    1.29646653323100   -3.33191210362395
O           1.79855607473492    0.05865293311351   -1.24062271829618
H           1.02531072653794   -0.53159356591937   -1.13840719427144
H           1.49515028866628    0.69308086267209   -1.91592406917029
H           1.97859398001151   -2.31486085910726    0.38737445967713
O           0.34829280833817   -0.51570394884599    2.60594369431246
H          -0.58801203580885   -0.57187367846042    2.32352303543653
H           0.75853806782441   -1.31941041269638    2.22506414862610
H           0.81354728614199    0.63383523346525    1.69844737011576
N           0.94374645514317    1.34202933479089    0.89276764207621
H          -0.01112139299977    1.48406602538783    0.48230369488208
H           1.50613967894166    0.88924396897536    0.11086365660575
H           1.35423935778773    2.21477485170712    1.20617844693719
