    23
        -45.37890816  Gyration_radius:  2.28774568418 Dipole_moment: 2.675
 S          -0.47676382849657   -1.49413767990198    0.55616338804418
O           0.78764435159268   -2.18805077576596    0.53074904874582
O          -0.56116867415254   -0.53277863665167    1.65977590088821
O          -0.83311412466116   -0.86511796720188   -0.70303782692476
O          -1.58181880393460   -2.59352477566197    0.84236693459357
H          -1.06101475611820   -3.28998339762332    1.22853356360775
O           0.98876599203723   -0.37904510100218   -2.62814914223286
H           0.28924260645207   -0.72340487492081   -2.04173192066925
O          -2.41854752817735    1.36256722468038    1.24885913786966
H          -3.27874349582026    0.94878824618854    1.16632942271418
H          -1.79662846183013    0.64693540101409    1.49157867146113
O           2.58967465074748   -0.49626513471442   -0.47213742307063
H           2.11667231860521   -1.25832222757359   -0.07840758135745
H           2.25872066737236   -0.46352278103985   -1.39350252508075
H           1.86192795264044    0.64829501048667    0.25050339585337
O          -0.83422417653393    1.80907129770856   -0.89794931361470
H          -1.52285156580912    2.00347388945743   -0.23563909023774
H           0.66473457743952    0.46133087827738   -2.95983268961245
H          -0.92746997124241    0.84393239039824   -1.02691168713502
N           1.13999117663927    1.27187996409400    0.75791655462757
H           0.54819761303230    0.61761939767332    1.32547452428866
H           0.46887457621572    1.68831566823740    0.04453173519672
H           1.57789890392945    1.98194398385006    1.33451693210271
