    23
        -45.37890812  Gyration_radius:  2.28821067581 Dipole_moment: 2.701
 S           1.04056522682522    0.99341783443696    0.83900741269221
O           0.08844224219539    1.86404337741383    1.48439646166113
O           1.07195761052649   -0.34151338693051    1.44425443024799
O           0.87908919357127    0.90227445190568   -0.60103763380689
O           2.46951530380181    1.62891977081528    1.09579854523529
H           2.29813498966404    2.18239898636065    1.85073792221210
O          -1.39901325838281    1.64222301620332   -1.83592524902611
H          -0.51042042974076    1.56263985330724   -1.44102926654853
O           2.07724363253048   -2.21886356761875   -0.19172112068012
H           2.98536168528893   -2.00070721692894   -0.40531870406365
H           1.79104600744502   -1.56226869195238    0.47524165048066
O          -0.01028823463936   -1.37885991365632   -1.69356032738638
H           0.35223714495920   -0.49019405924772   -1.50450354997577
H           0.71331406026407   -1.96923597068806   -1.41364065646456
H          -1.44230654959065    0.97425103656241   -2.52382030438684
O          -2.33658118510557    1.14982796475171    0.63450589749695
H          -2.25572414440929    1.44569982536407   -0.29576665261756
H          -1.85947176807118   -0.31073675496833    0.62618808423433
H          -1.56924780515242    1.56344997078558    1.08135166943816
N          -1.27359869269895   -1.21859060500055    0.61021007452811
H          -0.95305513553159   -1.41535872087658   -0.38539265229155
H          -1.76622690433371   -2.00561924608214    1.01808019330310
H          -0.39097299945631   -0.99719796396489    1.13194377569026
