    23
        -45.37890829  Gyration_radius:  2.28803842498 Dipole_moment: 2.685
 S          -1.60988705634363   -0.35369904528928   -0.23179369173808
O          -1.16053931726337    0.52638152399492   -1.31473531421806
O          -1.51441025385233   -1.74893410061889   -0.58545498993785
O          -0.95098292499343   -0.01225310755097    1.01620786062391
O          -3.15226647229488   -0.05125666212242   -0.02756125045701
H          -3.55145072548768   -0.76817348288079   -0.50941264136541
O           0.89376210028965   -1.61643721995771    2.15000195113799
H           0.09726438651969   -1.12704400362323    1.87086999036967
O          -0.46698477344761    2.97387167903858   -0.45452074823066
H          -1.22800082160382    3.39596808169434   -0.05383548894423
H          -0.79303022391999    2.13253563495858   -0.83356753893377
O           1.27565671892072    1.48095188738051    0.97799271542929
H           1.49732010555980   -0.95862741384713    2.50237240728849
H           0.90390274689194    2.28852088475037    0.57765797357157
H           0.47551039317214    0.96883684303937    1.21085044926766
O           1.05945940650171   -2.42621924605785   -0.40765965115718
H           1.42562222667232   -1.02693268631935   -0.92692933956203
H           1.15689183929913   -2.36700851485302    0.56524922668235
H           0.09061499535232   -2.39982789285092   -0.54974956928102
N           1.42676052025698    0.01733369944274   -1.20441553485608
H           1.60497213072533    0.61318477894769   -0.34064070849287
H           0.43891524751702    0.23944883615601   -1.47836494246786
H           2.08089978148417    0.21937951657527   -1.95256117474150
