    23
        -45.37890811  Gyration_radius:  2.28840941214 Dipole_moment: 2.706
 S           0.63339969050493    0.87624854093053    1.26650337786693
O           0.54490320150023   -0.10568452543947    2.31954688240691
O           1.70858276394303    0.57639685506750    0.31606098082003
O          -0.61840268481781    1.11288581932089    0.57001516809036
O           1.02911253841145    2.24284559100598    1.96479460329574
H           1.40294385344409    1.93594470128820    2.78430719059787
O          -2.67681206203323   -0.62180734437666    0.69405235961775
H          -2.03342639349655    0.10432122565864    0.79750498666805
O           1.37357176053696    1.76293331983685   -2.06942709056494
H           1.59205192577318    1.38370664093304   -1.19399920705968
H           1.38039053282210    2.71410084161971   -1.95509158763023
O          -0.89880291069465    0.29800475258127   -1.96898945654109
H          -0.19629318875298    0.83749757836315   -2.37632354975367
H          -3.01210401568239   -0.55096017648024   -0.20247948526035
H          -0.98874813750851    0.69737434241587   -1.08060084845063
O          -0.63311549585106   -2.26407684315740    1.28690639841319
H          -1.53032710254538   -1.89184957018567    1.16084615994055
H           0.09967017543310   -1.98309905643934   -0.03430696532389
H          -0.18365834453892   -1.60798241934743    1.85886162100930
N           0.63418484516830   -1.53003049035683   -0.85683588416423
H           1.26168171682975   -0.80855795196158   -0.42561792777292
H          -0.04513049898764   -0.97001029014103   -1.45492176352746
H           1.15632780054420   -2.20820157114024   -1.40080596266237
