    23
        -45.38134511  Gyration_radius:  2.27266348578 Dipole_moment: 3.489
 S          -0.92069969603168   -1.38608963807008   -0.56139511812071
O          -0.61267317316409   -0.89380032044987   -1.89636688982427
O           0.29086586808279   -1.85363856463997    0.11211613287833
O          -1.67987305576411   -0.44855940172361    0.22939772894088
O          -1.83730200970265   -2.66230977002996   -0.75204417674684
H          -1.31444685001339   -3.21277906983088   -1.32594760119959
O           1.18143371150057   -1.07236715761476    2.50450431981248
H           0.80611217611919   -1.47342093720480    1.69438176233612
O          -1.45844483454351    1.57239859353081   -1.62597097948257
H          -1.16640222490656    0.67426855003003   -1.90604591448504
H          -2.14626944471970    1.38647173310059   -0.97764044343692
O           1.90774477347061   -0.14801505884953   -1.04820649527152
H           1.42886649930546   -0.84961927865148   -0.55121680100471
H           1.53890128266491   -0.22232340049732   -1.93486450985252
H           2.13209009647249   -1.17042129588795    2.43203288732059
O          -0.43020087230382    1.03484365585827    2.06519083241615
H           0.27717032495984    1.70734984587485    0.87549474597325
H          -1.06273997874934    0.49789892525923    1.54540258109909
H           0.17349444612017    0.37247984167205    2.45623735521690
N           0.65582408177936    2.00194386391018   -0.09104891099234
H           1.29720118983402    1.23844773369564   -0.43505920439292
H           1.11903410727257    2.90294153800236   -0.06306223411237
H          -0.17968639767867    2.00429960252962   -0.74588906706875
