    23
        -45.38134562  Gyration_radius:  2.27243962382 Dipole_moment: 3.502
 S          -1.71069832205796   -0.08578944450145   -0.39188920732765
O          -1.26502440450412   -0.09380311173647   -1.77783690070599
O          -1.31209334377398   -1.31761613196903    0.28900358190761
O          -1.32229828644065    1.10488232991068    0.32392880779366
O          -3.29294333331079   -0.09544834200521   -0.42772640245217
H          -3.48605352767134   -0.85456884477775   -0.96827439687733
O           0.08134267478761   -1.50128442244464    2.55871253619608
H          -0.54491116238304   -1.45961564665094    1.80766951157518
O           0.24842616622784    2.04589093035302   -1.72958761117205
H          -0.32926024325179    1.27332623124711   -1.92834278861074
H          -0.24093995245796    2.51441999756883   -1.04471933320962
O           0.89505484595791   -1.66867366263464   -1.08003492318800
H           0.09772585668397   -1.67357163051886   -0.50306656286235
H           0.53374122842084   -1.44681926339518   -1.94483015196455
H           0.55971441086237   -2.32577596069734    2.45825631062990
O           0.78311692668539    1.02518292954992    1.96535330355186
H          -0.07063750496087    1.20530577102352    1.52127768346942
H           0.64325006603966    0.16045448616195    2.40026987676726
H           1.62087503730838    0.80693354577253    0.69362795820707
N           1.98428568983320    0.63914628251083   -0.30861397143153
H           1.43179768824994    1.29402082872230   -0.93526588979986
H           1.71243114111847   -0.33953272036803   -0.59270615584899
H           2.98309832864932    0.79293584885890   -0.38520526464669
