    23
        -45.38134550  Gyration_radius:  2.27246141974 Dipole_moment: 3.496
 S          -1.70888816590599   -0.37518415113544    0.15856060130497
O          -1.07957011489654   -0.44151946030499    1.47743756239487
O          -1.92235361666755    1.00766172845315   -0.24364842481890
O          -1.01610593852226   -1.15678474176837   -0.83646374966069
O          -3.14383806332529   -1.02243751125211    0.32289509199616
H          -3.57374210066035   -0.42859702402244    0.92977058379963
O           1.16864215433987   -1.73867955218352    2.10151755921520
H           0.27643393526539   -1.37456984115406    1.92997200278308
O          -0.49437019009913    1.01595524134027   -2.44192318348515
H          -0.61934114476845    0.08622783814682   -2.66112513169466
H          -1.11843746446690    1.15477167667745   -1.69264374625298
O           1.59564630556584   -1.63749533169441   -0.55102055309329
H           1.77890347352709   -0.12438801388763   -0.76154840485822
H           1.64266452977435   -1.82794077358056    0.40700042652544
H           0.63795370741824   -1.67451048840731   -0.75086987649522
O           0.28605283384602    1.78128498472024    1.22421058463879
H          -0.41535490597564    2.30447828249928    0.82171614826019
H          -0.17348617363950    0.94473737699554    1.46413771348695
H           1.53275249180988   -1.21837990676445    2.81943372333956
N           1.65764229817782    0.93882006309430   -0.90093207802741
H           2.52290780480332    1.39123663977443   -1.17257855519724
H           1.26535997566980    1.34055720598747   -0.00804411713623
H           0.90052833872726    1.05475574845824   -1.63585417702308
