    23
        -45.35869266  Gyration_radius:  2.35956586606 Dipole_moment: 4.215
 S          -1.49570169657151   -1.12552564435033   -0.62676506057971
O          -1.84541383780433   -1.19285680848672    0.80189453677249
O          -1.49149118623000    0.26672683168335   -1.07059026464310
O          -0.29758046036349   -1.83919279393241   -0.95382432422015
O          -2.69925261492599   -1.83074132960182   -1.36771460687152
H          -3.44475342386842   -1.43632772376752   -0.92824308040484
O           1.97372267448600   -0.70855017014249    1.86550247442275
H           2.06788277154621   -1.60769263846548    2.18566906691874
O          -0.80986373642231    2.09372817090216    0.64115422815289
H          -1.59125935125264    2.61242823337007    0.84055258699292
H          -1.07397655460982    1.45180462199656   -0.07158982261989
O           2.20573047400586   -0.92853474000705   -0.65595206580052
H           1.39235926747923   -1.43056246255587   -0.85015355967567
H           2.04316717318218   -0.05344642176680   -1.08175551443119
H           2.13303966702881   -0.75550960931709    0.85437978092597
O          -0.33864168898121    0.14735263789937    2.22965135849367
H          -0.41921026801090    1.02373868165190    1.72172586648201
H          -0.98362929416532   -0.49370533609809    1.68962264156616
H           0.65896874864964   -0.20918776101941    2.10002879651453
N           1.19275402823330    1.32274385521917   -1.74573272380248
H           1.40896358729025    1.64943971573289   -2.67871035340958
H           1.15385368339824    2.12869833012299   -1.13358234865249
H           0.26033203797976    0.91517235098960   -1.76556758212636
