    23
        -45.38134543  Gyration_radius:  2.27257360959 Dipole_moment: 3.496
 S          -1.27378901248664   -1.19804742475180   -0.16672479351450
O          -0.53234842062420   -1.45289882227308    1.06833955781299
O          -2.18288542614784   -0.07304449536454   -0.00091141368090
O          -0.41922179506000   -1.07352069044106   -1.32224068789212
O          -2.17678838000861   -2.47523900014307   -0.40837486286313
H          -2.75636595773831   -2.46852317909735    0.34647061388879
O           2.12067022421397   -1.59676154053052    1.32953976441242
H           1.15055949471503   -1.68661024672867    1.23535265663977
O          -1.22704842558336    1.50025034219830   -1.86693796765521
H          -1.74047257532424    1.00575571068874   -1.18710238274338
H          -0.90903512832938    0.80300231523905   -2.45062546070710
O           2.10675656019307   -0.26577931472208   -1.00672106495160
H           2.36026116853166   -0.76599529856783   -0.20557318775742
H           1.27222793320716   -0.68970883086229   -1.29377520660349
H           1.50189634977079    1.08201524756155   -0.57634936028561
O          -0.47011568664374    1.04640596759395    1.85492141859316
H          -1.38147420791388    1.26261948783343    1.63051389861224
H          -0.42850181903333    0.07603192948891    1.69582794861779
H           2.27205988762680   -1.29492059055461    2.22664089676922
N           0.86157863303596    1.90199678448880   -0.28984333408238
H           0.43770913036904    1.67073751126932    0.64801902663722
H           0.05920690129334    1.90517587300159   -0.98485953505467
H           1.35512055193392    2.78705824467502   -0.27558653419330
