    23
        -45.38134533  Gyration_radius:  2.27239027608 Dipole_moment: 3.505
 S          -0.49711530858555   -1.67508445966312   -0.18774342607560
O           0.66129230461273   -1.79014729196233   -1.06176335577273
O          -0.08232477034277   -1.44891239938610    1.19685561055743
O          -1.46587069247995   -0.71168630439758   -0.65060359844723
O          -1.21775277541562   -3.08406559422735   -0.20567661161732
H          -0.52148299854359   -3.67998424486050    0.05109705422137
O          -0.86085008286756    0.54985507942801    2.78626921096859
H          -0.67085078050731   -0.26298931431937    2.27525933261908
O           0.14948479343225    0.20817170133584   -2.67898832365771
H          -0.81026444425368    0.16917976844445   -2.60508930500656
H           0.44271711946963   -0.60741886305245   -2.21092819807137
O           2.09181021347484   -0.11155980207125    0.60256894807283
H           2.38644640493018   -0.67767351032533   -0.11876064422008
H          -0.10162177798779    0.68775150505066    3.35481004167950
H           1.32353551612147   -0.60502817703398    0.97004190705055
O          -1.53789219581176    1.71588570601025    0.46059208373490
H          -1.74186281434535    0.85708362740932    0.03706240412784
H          -1.41626233314371    1.48897617561112    1.40416176254886
H          -0.15413100896036    1.92388813691092   -0.17863230670303
N           0.79351522836075    1.82792879680904   -0.68600480391529
H           1.40509490779211    1.18827102294567   -0.11217390494029
H           1.23297022941987    2.72610822161428   -0.85114186967221
H           0.59141527563215    1.31145020973013   -1.59121200748661
