    23
        -45.35869251  Gyration_radius:  2.35950058313 Dipole_moment: 4.211
 S           0.89244117073644   -1.65914510871225    0.58792224282889
O           1.78947441619010   -1.40495701497916   -0.55175919096455
O           0.93636698344608   -0.52991665394965    1.51421539419810
O          -0.43347351594497   -2.03318007636468    0.19551483530655
O           1.54057824525385   -2.88609618712752    1.34237656561963
H           2.45497471866938   -2.62604105939569    1.36949279675294
O          -1.11214786731443    0.51156433145456   -2.52539112022491
H          -1.21478070444272   -0.17804771851407   -3.18397963948080
O           1.34042185631078    1.83686540988689    0.52938482046375
H           1.17463856748625    0.96516191415513    0.97921095359208
H           2.20888009451817    2.12690523247251    0.81408258381753
O          -2.40355506068458   -0.36073016824332   -0.51715712637100
H          -1.83909993768854   -1.12052792491848   -0.28207905788538
H          -2.28728019875815    0.25622036700446    0.24406125149258
H          -1.68227399098548    0.21949348966431   -1.72583937527504
O           1.25100773775595    0.68635188695468   -1.75165485745762
H           0.24536991620266    0.62961825504367   -2.10361584542508
H           1.25911546835359    1.30584277994416   -0.94635541303187
H           1.49925268924918   -0.24986723347821   -1.32594161015016
N          -1.56909815601203    1.04622151209885    1.62891318876841
H          -0.81162916678012    0.38602433662286    1.79102918807911
H          -2.09394343218927    1.13435736005137    2.48957632902439
H          -1.14523984330305    1.94388225034723    1.42799307632787
