    23
        -45.35869073  Gyration_radius:  2.35976802606 Dipole_moment: 4.238
 S          -0.53918182181652    0.95120599747306   -1.64525286186711
O           0.27389067151283    2.04763456076172   -1.09355602226242
O           0.28984140471102   -0.23951233847677   -1.82052238001143
O          -1.74611915357124    0.71316203517536   -0.91159625672463
O          -0.93968915132970    1.43563532454552   -3.09420142789921
H          -0.09974741386794    1.72555191250408   -3.43319960113209
O          -0.42421129005002    0.83375308392606    2.64872558209368
H          -0.98025196291148    1.58479938154115    2.86442352502383
O           2.24463920059670   -0.62122240418362   -0.15674548665053
H           3.06503810057858   -0.50901084947792   -0.64020530163824
H           1.51237431372578   -0.54751212865336   -0.82608288699863
O           1.37301257968339    1.46277485604929    1.03991747036242
H           0.62135654093472    1.20091437410436    1.75022556704326
H           1.81443050193069    0.60194880597607    0.72923820288384
H           0.88644698515303    1.80254607522344    0.16381553331899
O          -1.95991521932664   -0.71664958229599    1.34528890609030
H          -2.09485854199465   -0.17812070353271    0.54337831575924
H          -1.44425064561704   -1.49144399304567    1.01788035610573
H          -1.03733760588399    0.15860103594872    2.18189006148012
N          -0.37763690313619   -2.45931582401313    0.02549044043995
H           0.55587568905076   -2.57497146829346    0.40099522166536
H          -0.30638498113126   -1.82363369288045   -0.76618802091477
H          -0.68732129734922   -3.35713444837708   -0.32371891612594
