    23
        -45.38134519  Gyration_radius:  2.27265573184 Dipole_moment: 3.490
 S           0.94041076061089   -0.75087891167630   -1.27898249086606
O           1.40150569067704    0.60028767479307   -1.56380208893522
O           1.44036473450133   -1.20772496575618    0.01767867406628
O          -0.48667022593591   -0.90649053401303   -1.42013881864874
O           1.60671420405000   -1.69220244410013   -2.36305967218059
H           2.53389056327094   -1.50063954268854   -2.26603457839499
O          -0.02123702804944   -2.15833677346680    2.03936307329600
H           0.54440207855912   -1.94519534736775    1.26954726921291
O          -0.92562852523891    1.78558731263201   -1.78833326308083
H           0.01021181574955    1.47863062694803   -1.80600543248500
H          -1.41331304412501    1.01923995014002   -2.10909925079915
O           1.45370619893230    1.16083811853118    1.14013617083821
H           0.48571695365365   -1.91467249635775    2.81541483614193
H           1.51559730045167    0.22262190654799    0.84953029116778
H           1.81921236714646    1.64292989051819    0.39065658770789
O          -2.02940441097990   -0.90904251085383    0.75978648004873
H          -1.62185990306564   -1.05941024903151   -0.11764810724087
H          -1.49017965700544   -1.45534563984372    1.36548213711449
H          -1.61171483076189    0.56349871739760    0.91797956471043
N          -1.16700401194533    1.54336272582401    0.83734065109935
H          -1.17425500871171    1.78532615815101   -0.19621185551179
H          -0.15221627236037    1.46326716253695    1.11375532719286
H          -1.65824977942189    2.23434916112713    1.39264448554268
