    23
        -45.35869118  Gyration_radius:  2.35981552809 Dipole_moment: 4.237
 S          -1.40041296255902   -1.38355272968350    0.16574172431269
O          -1.47738161033946   -0.51157079491751   -1.00453348144002
O          -0.27499970988233   -2.32083912740388    0.01569799579702
O          -1.39158524435564   -0.67891029586230    1.41274921815257
O          -2.69050504821075   -2.29395435869402    0.13192776166050
H          -2.51561678031605   -2.83754454503852   -0.62858507425333
O           2.27420258853815    0.30445779438744    1.61982553128856
H           2.39825548120899   -0.19951232990300    2.42630387083838
O           0.73389877339041    0.10741199867884   -2.21337990686722
H          -0.15158076893308   -0.07873421442270   -1.79978178825203
H           0.72653216214235   -0.32035408859839   -3.07149737228266
O           1.89183534405378   -1.18901568090245   -0.33908778781173
H           1.01178260037757   -1.73822978718411   -0.13067584272459
H           1.60704138419679   -0.59965102290105   -1.11620202960416
H           2.08396868619329   -0.55163293530579    0.49452352893060
O           0.06077941482862    1.50254998975475    1.97513588076122
H          -0.54379385626759    0.73721666890168    1.96867641349436
H           1.42136432209358    0.85376946958323    1.76345146603440
H          -0.18202151777616    1.99444696884554    1.15497548593028
N          -0.78774884390586    2.31697510831998   -0.45350472860402
H          -1.26358539430392    1.43017137601370   -0.60529034847524
H          -0.07119356657187    2.39718575927029   -1.16479941493737
H          -1.45923545362316    3.05931678707699   -0.60167111195852
