    23
        -45.35869196  Gyration_radius:  2.3593480597 Dipole_moment: 4.212
 S          -1.21109799647821   -1.51748381854575   -0.35040892160186
O          -1.78186007264041   -1.17645413628737    0.96328345733765
O          -1.32208833070526   -0.37176687599547   -1.25067697159389
O           0.11042729777394   -2.06443728093856   -0.27157620990496
O          -2.16658231644735   -2.63563821637739   -0.92586131707985
H          -3.02176122769101   -2.25556319712913   -0.75646030616471
O           1.72299380856860    0.30492033142567    2.19409882706184
H           1.88403540888916   -0.40894750383472    2.81402648893662
O          -1.17803703995463    2.00349316341094   -0.21487787472935
H          -1.23479721017112    1.12852964723982   -0.68480385932976
H          -2.04407621574844    2.40788371911242   -0.29125443038603
O           2.39225326397686   -0.67461066793793   -0.05420273745590
H           2.05055092636770   -0.03689465980720    1.28555795824945
H           1.69528352915616   -1.35069155170777   -0.14520368454482
H           2.18296622646764   -0.03050666210044   -0.77164358280248
O          -0.71186835655244    0.79884532389662    1.99098294601424
H          -0.82603297300233    1.43289323568876    1.20522050890759
H          -1.17191596547954   -0.08749698235014    1.64140714004509
H           0.33192491872945    0.60551932430465    2.09917447660183
N           1.27042747494842    0.87579450717815   -1.95708378225103
H           1.02438703796549    1.81535662287787   -1.66976221388341
H           0.41723784925288    0.32133981066684   -1.93277723959713
H           1.58762996278512    0.91591586715126   -2.91715868186913
