    23
        -45.37890806  Gyration_radius:  2.28770413196 Dipole_moment: 2.690
 S          -1.38900846046074   -0.87408038535546   -0.27188009919657
O          -2.13075581329773    0.06770195823029   -1.07408487069318
O          -0.28964287899230   -1.49449729350265   -1.01740937024810
O          -0.91570731681897   -0.33456217771906    0.99025808073001
O          -2.39582831344473   -2.04489469048176    0.08568983804050
H          -3.05218172693172   -1.94635710505537   -0.59627105111764
O          -0.75796675892057    2.31603277034894    1.45020271755488
H          -0.99490784409960    1.37204499785962    1.38257471701850
O           1.60438178746619   -2.51794357519941    0.58772324404650
H           0.90374391191528   -2.24664286315835   -0.03939017604602
H           1.21626958405599   -3.19772291585022    1.14017393156682
O           1.70843328773611    0.07212684042596    1.36206744690636
H           2.01299366532426   -0.84959333177587    1.27107212639172
H           0.04354561581428    2.34953043566221    1.97713884457602
H           0.73898421257725   -0.02969433556387    1.44294991064750
O          -0.65458050123696    2.28319587106635   -1.23589992158759
H          -0.73004192773889    2.57548592109700   -0.30407894744363
H           0.60311988371660    1.40049909167677   -1.27396576779737
H          -1.33965903048896    1.58824705949575   -1.32152741633653
N           1.31563574082854    0.59286263779697   -1.18798409496077
H           0.76468693440856   -0.28819296439975   -1.33152373833024
H           1.66128515115295    0.53133443599309   -0.18326133167896
H           2.07720080743355    0.67511964842604   -1.85257406203234
