    23
        -45.35869272  Gyration_radius:  2.35960207863 Dipole_moment: 4.212
 S          -0.42625327343787    1.52005876430663   -1.18515828236212
O          -1.74309134758503    1.46704524214852   -0.52866106124291
O           0.61697954863332    1.74013516436120   -0.18582558918226
O          -0.17424722607169    0.40351306594667   -2.04635793076172
O          -0.47601706610023    2.82169609043618   -2.07843167166764
H          -0.85628522129898    3.44828304223731   -1.47240611736949
O          -1.35992384410362   -2.44994916379813    0.15486099773411
H          -2.03572109210563   -2.69598541704651   -0.47964439678097
O           0.25785674162465    0.76409308369753    2.19127383469136
H           0.13049538125356    1.50025756559020    2.79230176128643
H           0.47007507503681    1.16051563563971    1.30375149269438
O           0.69450285047637   -2.01225271133903   -1.27597790919191
H           1.42805452790516   -1.67600997324632   -0.70818145024105
H          -0.49819940240046   -2.33472114781468   -0.38757789414071
H           0.39338665249214   -1.21674570254955   -1.75328907274130
O          -1.87714672593881   -0.26222631395362    1.23122269719196
H          -1.67080081729607   -1.21237921761901    0.79108577063992
H          -1.05280781015607    0.01799020976748    1.75520925164847
H          -1.91169002630663    0.45357794839576    0.45349034077316
N           2.41532159533474   -0.57708020796897    0.22756967955832
H           2.28488657376945   -0.64344375039131    1.22976994473662
H           1.98217952608300    0.29289093662873   -0.07483027150487
H           3.40844538935489   -0.50926316237950    0.04580586668348
