    23
        -45.35869224  Gyration_radius:  2.35944624294 Dipole_moment: 4.210
 S           1.90225971326561    0.11428889620067    0.51189412633487
O           0.96503415018591   -0.27521620330819    1.56312904985825
O           2.07346226582755   -0.99564890004340   -0.44035077300609
O           1.57893374162105    1.35935647223484   -0.11830946053783
O           3.31366903768190    0.27152240991953    1.20319247329931
H           3.52357534436070   -0.63360819897148    1.40608503497164
O          -1.06542615222866    0.24709587789795   -2.58551063870159
H          -0.53065418550260    0.53515784980457   -3.32772519390678
O          -0.94586932878896   -1.91594761562681    0.93737756303121
H          -0.77205948337771   -2.74827941028121    1.38057783116826
H          -0.24734584419524   -1.28056405042397    1.25056891115410
O          -0.85862041322927    2.14657225606519   -0.90898683465879
H           0.08647762969899    2.05823096698332   -0.68505079197540
H          -1.05886666129812    1.02583478692872   -1.91969001380239
H          -1.31766459218661    1.90092304983961   -0.07089988356060
O          -0.05691654103797   -1.73082931911969   -1.45221714033725
H          -0.50218500491621   -0.90154576385891   -1.95473284225365
H           0.89683549877427   -1.42869452894884   -1.10804035603960
H          -0.56925217805358   -1.87548730952401   -0.58682425176605
N          -1.61831477267859    1.17284725678380    1.49048979130226
H          -2.20761633406400    0.34955491710545    1.46365680424852
H          -1.91925397925294    1.74714150031359    2.26735846740015
H          -0.67020192068758    0.85729505994078    1.68400812787367
