    23
        -45.35869083  Gyration_radius:  2.35978229789 Dipole_moment: 4.237
 S           0.07159049254798   -1.94079662602986   -0.36337178834961
O          -1.19052082717250   -1.41952464441430    0.15743375087296
O           0.24704765684120   -1.51581500915479   -1.76200455649859
O           1.20318111747642   -1.65091599208039    0.46543483799259
O          -0.08770339215784   -3.51035477650454   -0.43565637677720
H          -0.73398928650289   -3.60090844828969   -1.12744533880159
O           1.96300233023818    1.90955754588961   -0.62548929634993
H           2.83371834086613    1.66184245896210   -0.94222259377189
O          -2.03640676997919    0.86004217327571   -0.74972281876282
H          -1.77414780133722   -0.01237393178204   -0.34989925468276
H          -2.82176693452100    0.69197096657882   -1.27355241471311
O           1.75468432643604    0.71115847989672    1.60635734848754
H           1.87856362344059    1.49586219565655    0.30810287398886
H           0.84991715694247    0.85468534864510    1.97287401431084
H           1.73017286676863   -0.21296232626345    1.29546515206258
O           0.16345710722132    0.93616069013591   -2.04957369189004
H           0.93449475142053    1.37565256965141   -1.45763631492310
H           0.27101199552145   -0.11501567070036   -1.99332415960209
H          -0.71870931676803    1.09495855211395   -1.57105759627133
N          -0.86997740131401    0.67257183197850    2.23143671697445
H          -1.22951731772259    0.54286375946530    3.16832834712921
H          -0.99746665210325   -0.20032499194124    1.72387987387789
H          -1.44063606623927    1.37166586521791    1.77164329585365
