    23
        -45.36026727  Gyration_radius:  2.3191125424 Dipole_moment: 3.828
 S           1.18546868800943    0.81836432272578   -0.75509724412614
O           1.27234181820011   -0.54555942038203   -0.20683246857404
O           1.51321581697627    0.84992218355487   -2.16532521608616
O          -0.07432722580969    1.42565343678354   -0.41392448238984
O           2.32322341503136    1.64420416470750   -0.01976575985651
H           3.07396101396868    1.52699943924711   -0.59360368099326
O          -2.52946281511367    0.17217958222546    0.23661963657374
H          -2.36991238079060    0.92197634983434   -0.34910098498143
O          -0.57926209511638   -0.38806781886456   -3.08988771419459
H           0.19276540861281    0.16902912686084   -2.81654659712575
H          -0.28655237712926   -0.89665881053579   -3.84922006284165
O          -1.00903509989608    1.04116252217868    2.10809041212636
H          -0.42599829372284    0.32486150461833    2.45164361883237
H          -0.51577065465461    1.43651136346869    1.36961645965698
H          -2.06709808871457    0.44786112521777    1.09709072265040
O          -0.98415978789759   -1.45852536467886   -0.80093959401227
H          -1.71642610870523   -0.78750333124636   -0.29996887026751
H          -0.95989412859499   -1.14734689138307   -1.76690516276328
H          -0.05301937611989   -1.17414368714066   -0.46015010337421
N           0.79259985402535   -0.92355856291839    2.61940564882083
H           1.56072887529360   -0.69953685595677    3.23894129402253
H           1.14068932929511   -0.87817379387229    1.66302421525626
H           0.51592420270941   -1.87965059436202    2.80283593334075
