    23
        -45.36026740  Gyration_radius:  2.31940007038 Dipole_moment: 3.827
 S           1.39987542191628   -0.16449567858278    0.81249351871175
O           1.23949871251703   -0.06405043835632   -0.64784607416118
O           2.27819644653367    0.86592406310651    1.32634811521119
O           0.11764842124957   -0.24453396501209    1.46183484025233
O           2.14403242905582   -1.54304061634379    1.06343546215633
H           3.06286921358010   -1.29442102013973    1.03999535523932
O          -2.40084257547050    0.66173910564082    0.53095104045859
H          -2.00822093093928    0.76549583567892    1.40606835836150
O           0.73938817858826    2.92968058964994    0.95258789462570
H           1.31345608984133    3.66684864567341    0.73359912814246
H           1.33607930172409    2.18135659554286    1.20749827346442
O          -1.77691891692397   -1.81431208809877    0.31160447544608
H          -1.39471274778075   -2.00582406000957   -0.57619388981784
H          -1.01924552552813   -1.55547045924256    0.86300741692060
H          -2.33063188941392   -0.33668728302593    0.36196156175408
O          -0.58130572476789    1.64776468686006   -0.82583741109010
H           0.13008870824822    0.90210992967400   -0.87256706068561
H          -1.44815173039741    1.21631304427009   -0.27816260282463
H          -0.15905132475656    2.30291513455653   -0.17564687312808
N          -0.36585622403130   -2.05749227519362   -1.99466907341189
H           0.34560313344205   -1.41595736160319   -1.64794300209188
H          -0.70341619686859   -1.69666875089344   -2.87798713073355
H           0.08161773035174   -2.94719365415140   -2.17453232297688
