    23
        -45.36026736  Gyration_radius:  2.31930487823 Dipole_moment: 3.829
 S           0.01180687755200   -0.94621604606610    1.32355628371195
O          -0.42633422100947   -1.33298133185986   -0.02802794933126
O           1.06564417546175   -1.81093443723959    1.81229229129513
O           0.31027331249974    0.46089457254768    1.37957215504938
O          -1.23986467179374   -1.20192461140096    2.26442786614560
H          -1.11100040683511   -2.10187387712936    2.54743941445425
O           1.04966361666741    2.20165149257445   -0.72885276084794
H           1.43200240481061    2.12391408612242    0.15345354513081
O           2.98286580632651   -1.04212711486971    0.23134728269045
H           2.32833110621373   -1.31449948059631    0.92307787777701
H           3.52232832836458   -1.81579974719893    0.05430771365769
O          -1.37842861555437    2.15375076110952    0.08988270966342
H          -1.92478039118367    1.54401584035505   -0.45855520670967
H          -1.01024963727777    1.59715402058603    0.79670415572840
H           0.05878787683530    2.31891276265725   -0.54254924747786
O           1.26835259748110   -0.15562677664798   -1.44920046570126
H           0.49199166589508   -0.63757615810028   -0.97047567469663
H           1.16262980660318    0.92412894267489   -1.20279539606258
H           2.07325515954503   -0.46956267200712   -0.91628028974558
N          -2.60535564832347    0.13121623295186   -1.24118229654341
H          -2.56657124128165    0.04423550512615   -2.24876305868269
H          -3.53864087362109   -0.12360661341201   -0.94439781966314
H          -1.95670702753140   -0.54714535041143   -0.84498111971762
