    23
        -45.36026725  Gyration_radius:  2.3192296254 Dipole_moment: 3.829
 S          -0.89820913580136   -1.30838870045280    0.35398470325492
O          -1.31848033333437    0.09911094242855    0.45664761258145
O          -1.77820713657956   -2.06773248242507   -0.50988304368338
O           0.49979809355001   -1.40043792670982    0.02331445944165
O          -1.08076596960868   -1.91250623489345    1.80967626021371
H          -1.97443713004680   -2.24057981762975    1.79144388866133
O           2.14098619128255    0.50194462061069   -1.28370345779383
H           2.08261409585664   -0.44969596261313   -1.43119074738731
O          -1.12605868818095   -0.99667332277488   -2.78880362950510
H          -1.35338143576372   -1.50945515664909   -1.97235198520713
H          -1.92164956522900   -0.98130699565315   -3.32519618745075
O          -0.24592881747182    1.08217830140182   -1.58330219209237
H          -0.56597245107818    0.35680968450459   -2.21716894485370
H          -0.68605856929263    0.80058146232088   -0.69393655036944
H           0.84456582364059    0.89871527853451   -1.46162047398378
O           2.19722036239983    0.31438479898510    1.27200743112059
H           1.65488949393641   -0.47649907109323    1.11276807579564
H           2.29540992425739    0.57235682290382   -0.28309413658276
H           1.58591275838402    0.96509277853666    1.68891092054187
N           0.16760911976875    1.85376509449246    2.21012256968518
H           0.04267627579724    2.81792138952404    1.92878851478070
H          -0.04685606402085    1.78921538154931    3.19699491466814
H          -0.51567683166050    1.29119912536435    1.70559198797287
