    23
        -45.36026748  Gyration_radius:  2.31939847321 Dipole_moment: 3.828
 S          -1.52773101859414    0.53835713704041    0.15592166938513
O          -2.63863215513977    0.39485010038682   -0.76196135106112
O          -1.00953492939337   -0.76942197948714    0.59151107014685
O          -0.45869414998068    1.37880968472189   -0.31636168431350
O          -2.12016343560489    1.21612820204352    1.46236387867153
H          -3.02593097947588    0.92254609643649    1.46019812222629
O           2.06944165954861    0.61942141330740   -1.34575614836570
H           1.45319892126952    1.27955901650185   -1.68521440653069
O          -1.34600753658404   -0.53963951702227   -2.81681803911553
H          -1.88271426489044   -0.10205045614045   -2.10863555133552
H          -1.93740979288620   -1.15073171388992   -3.26153400004056
O           0.54821557498097   -1.33144554139869   -1.28858113504323
H          -0.02031303400509   -1.18209044001196   -0.44073583932368
H          -0.11135106570892   -1.11107298896579   -2.02787553557282
H           1.29362131018815   -0.50578600357214   -1.31198711466568
O           1.86181007111051    1.37173190839193    1.09536355052170
H           1.75180503230310    0.59803696017068    1.69561926727997
H           2.17987889036207    0.88407961114788   -0.37206168039605
H           0.95955831183245    1.61341096348287    0.82596015405179
N           1.14350244271470   -0.82298952430470    2.52221690977851
H           1.64794881323183   -1.69805846089992    2.45816509944335
H           0.28634905724574   -0.91749810215668    1.97972993660477
H           0.88315228759548   -0.68614639576695    3.49047283766779
