    23
        -45.36026742  Gyration_radius:  2.31934898692 Dipole_moment: 3.824
 S           1.15481832693244    1.11718089503207    0.25748690503659
O           0.08023350309231    1.18125027500172   -0.74733422460414
O           1.12837780575490    2.26288539587491    1.14281126381604
O           1.15585646114766   -0.15979222329300    0.92193389904987
O           2.50890275882114    1.22527823952974   -0.56224937628301
H           2.66838530594050    2.16375178614595   -0.58321751226104
O          -0.98145905912628   -1.99231570603415    1.24447230242630
H          -0.33705701352877   -1.69604268613857    1.89848211314708
O          -1.05383792198131    1.71287498483563    2.44752502876809
H          -0.17078080855087    1.93361710709177    2.05701541566292
H          -1.47327236491755    2.55159903761426    2.65150830088458
O           0.75204144989524   -2.36938059956693   -0.60511550753524
H          -0.40164239960994   -2.30032966886062    0.47032951273524
H           0.44323024535450   -1.99177212807437   -1.46129532400507
H           1.21813000502284   -1.64116228556653   -0.16065144349348
O          -1.84571111299170    0.21372816504779    0.53019651390468
H          -1.70271064119169    0.77983372776036    1.36035320838358
H          -1.11765415636034    0.57527766941790   -0.10510443169892
H          -1.52352807775327   -0.81081847974182    0.82072426350164
N          -0.06585456936557   -0.90812230655221   -2.74149179063647
H          -0.00247285010627   -0.04758879820702   -2.19986567306987
H          -1.00526354405329   -0.97112595289883   -3.11283846602515
H           0.57126862764625   -0.82882642845526   -3.52367497779061
