    23
        -45.36026742  Gyration_radius:  2.3192173637 Dipole_moment: 3.824
 S          -1.51630822292681   -0.58021290568686   -0.11269776246066
O          -0.58236855678067   -0.77996574384982    1.00819992888788
O          -2.75600399552067    0.02645235045340    0.32586419364816
O          -0.86549679318887    0.09583210463006   -1.20430950110150
O          -1.89274177153253   -2.03716757127260   -0.61583770294673
H          -2.65974739639089   -2.24926086997420   -0.09300545723135
O           1.40319388184751    1.79084625317043   -1.14183691362239
H           0.56968933311695    1.91432418998312   -1.61162853988772
O          -1.86075538290911    2.40165274813792    0.89493768895374
H          -2.36953945741585    2.71674304036733    1.64513571483573
H          -2.28382396762320    1.55216027968632    0.61161893893899
O           0.51020186518762    1.47096186409457    1.14367989639421
H           0.98262727018153    1.63174910250719    0.14926007749607
H          -0.35667190458946    1.99818672551639    1.11117734344893
H           0.16957611062053    0.49726615938961    1.14693147502067
O           1.66760420569994   -0.66519195560438   -1.82412312928711
H           0.69559851403742   -0.65478235405490   -1.81579734447561
H           1.69753650671632    0.86355510159796   -1.43146611470557
H           1.92459947191865   -1.22038332796556   -1.05162231071694
N           1.94538780243907   -2.07990237211368    0.47552328759785
H           1.92620374674697   -3.08931308109368    0.40676502057549
H           1.02900977867543   -1.77245922705763    0.79753701747990
H           2.62222897179594   -1.83109051111274    1.18569419323227
