    23
        -45.36026744  Gyration_radius:  2.31934602298 Dipole_moment: 3.827
 S           0.23116830951369    0.34789439037309   -1.57274876891031
O           1.34288126691311   -0.01183396900908   -2.42826465490888
O          -0.44287498376312   -0.84227813214912   -1.02728530316076
O           0.55352396512862    1.27771306434817   -0.52217037130012
O          -0.83901008994507    1.04790802079366   -2.51195098827551
H          -0.67544448420496    0.64210706197917   -3.35763813201940
O           0.93480935744637    0.77074878780679    2.23865758522575
H           1.46560602958125    1.31602821933186    1.64563546917958
O           2.96308694169789   -0.93670244235309   -0.61566334870217
H           3.45307484599873   -1.65437225612271   -1.02283523694231
H           2.43660540354430   -0.51539099005350   -1.34119018710294
O          -1.31201655968770    1.68422870879448    1.41047602367524
H          -1.95434520258911    0.95367390331622    1.25318619224654
H          -0.00615515056633    1.12509031421651    2.09962190397515
H          -0.83301011831944    1.78533384164857    0.57068750200025
O           0.99178601013997   -1.34913205669648    0.96338985444262
H           1.87351237270253   -1.27680181824922    0.46567913250811
H           0.94546945125693   -0.43882330288196    1.60134120053942
H           0.30507160710757   -1.20592183318770    0.20694035301846
N          -2.78067325177072   -0.46184303648340    0.63239692994538
H          -2.91980179700303   -1.26723897014608    1.22929934527219
H          -2.08213798349159   -0.70944915441109   -0.06662513355891
H          -3.65112595004025   -0.28093835090031    0.14906061264382
