    23
        -45.36026749  Gyration_radius:  2.31933344604 Dipole_moment: 3.832
 S          -1.55383228487982   -0.31899262997699    0.36428769460403
O          -0.38244427027629   -1.13624240476035    0.72279097207549
O          -2.31071653237384    0.07343119488698    1.53491313367737
O          -1.17255061720150    0.76674427633211   -0.50058247183807
O          -2.50080956650409   -1.27922872571171   -0.47148724755081
H          -3.05096971518493   -1.67035628579522    0.20004450650669
O           1.35904110587954    2.00613897914082   -0.77903752855744
H           0.48907062482296    2.41732390010480   -0.70946524722981
O          -0.60925034298474    1.74471923851148    2.57326222081819
H          -1.33747828307466    1.19549965205242    2.18705942468497
H          -0.69535682370695    1.67118532181220    3.52620695447486
O           0.61768487108693    0.23098137380145   -2.47254611653345
H          -0.23546830116623    0.31208385194415   -2.01370581989490
H           1.23960903000181    1.33717258441754   -1.53298409932024
H           0.95934733382380   -0.65915697430980   -2.22371061455678
O           1.30002255218012    0.63479477320687    1.27996500359752
H           0.71078790090677   -0.17327062984477    1.02671767846986
H           1.40638438840582    1.24348765908287    0.35481669311141
H           0.67900472144673    1.17081260434890    1.87771554444206
N           1.27562037872368   -2.17697637367794   -1.40595561255753
H           2.20435902280304   -2.37877662058936   -1.05792009940482
H           0.93537391206943   -3.00514487225006   -1.87760361286572
H           0.67257089510346   -2.00622987269344   -0.60278137640572
