    23
        -45.36026753  Gyration_radius:  2.319265488 Dipole_moment: 3.824
 S          -1.26918151659472    0.50360591591028   -0.88613864204172
O          -1.37355322465966    1.66656966855300   -1.74276911847728
O          -0.19623334946057   -0.40290239958083   -1.32839581168479
O          -1.14306775909198    0.79638842385005    0.51760635771014
O          -2.61790401078773   -0.30918436193195   -1.08039805837897
H          -2.87343821945106   -0.08462677859732   -1.96972008803459
O           1.17177055181978    0.69775118967610    2.14878881047654
H           0.49204524797713    1.38101239977055    2.10637009278561
O           0.83883768976242    2.85921329675886   -1.07267935422879
H           1.16578020680005    3.29901032804696   -1.86047202575048
H          -0.05804332554545    2.50851456524513   -1.30428985362117
O           1.80641742375587    0.64026956729253   -0.24226791294927
H           1.59090887877952    0.63006493791793    0.84920361467952
H           1.05171410873446    0.09820982985272   -0.69030603336351
H           1.59458652892715    1.58646687494158   -0.54268254147353
O          -0.49050444762182   -1.25254928922112    2.17789857682699
H          -0.21347581335338   -1.96145871992517    1.55198506073378
H           0.63691341711369   -0.15323615252325    2.29029316052673
H          -1.03690356853512   -0.64729918513683    1.64870333730534
N           0.19274800061564   -2.87846725371285    0.11473330800732
H           1.13801987983978   -3.21455567375734   -0.01864863381607
H           0.03212703390629   -2.12751664691031   -0.55478914675578
H          -0.43956374286528   -3.63528054764762   -0.11202509887869
