    23
        -45.37890823  Gyration_radius:  2.28774041274 Dipole_moment: 2.680
 S          -1.44762392800430   -0.52910100059578    0.62767532980692
O          -1.39382530790866   -0.88284127107801   -0.79397665331437
O          -0.98045791804451   -1.59845153467087    1.47569510876161
O          -0.79383939437632    0.74511334025845    0.86650624938614
O          -2.98050602655439   -0.32385703609357    0.97415463574526
H          -3.19801175314291   -1.15810776393614    1.37685386896318
O           1.55182985908775    0.93059109377893    2.18045152314650
H           0.62115573596856    0.90883049493074    1.88856110665584
O          -1.37421792325722    1.26783043823048   -2.40204699650440
H          -2.17852488265194    1.77052667243550   -2.26696126549018
H          -1.47272361894724    0.45227322957715   -1.87012904556675
O           1.68198549998744   -1.61275678010754    1.32078799509817
H           1.56152727957975   -1.21855013911636   -0.15960319483533
H           1.85842826014250   -0.77197309136718    1.79139933165620
H           0.73937976966447   -1.79768374693188    1.51302219688166
O           0.87475619839775    1.74786687746437   -0.97695747632345
H           0.29056067488019    1.58052728786449   -0.21043384193742
H           1.96619444617726    1.64157812914060    1.68656267465464
H           0.24087464560717    1.84426459245919   -1.71143173210881
N           1.22473040029941   -0.85704997853820   -1.12056517948471
H           0.19243163218149   -1.04138065779937   -1.14745026280384
H           1.70833813698277   -1.30126748956462   -1.89337518571614
H           1.30753821394631    0.20361835366864   -1.14873917665131
