    23
        -45.36026742  Gyration_radius:  2.31928512941 Dipole_moment: 3.832
 S          -1.16865650716829   -0.36004161460893   -1.07347392857281
O          -2.56870247628810    0.00928326114999   -1.04932900935586
O          -0.29392386982049    0.82436588870680   -1.09264430694322
O          -0.76689887738543   -1.27387726925517   -0.03627976028252
O          -0.92857280590531   -1.08702518749072   -2.46310471287232
H          -1.58327230750314   -0.68668493311979   -3.02677049130822
O           0.67050409073263   -0.73300687512179    2.34329971874212
H          -0.11844515536312   -1.27507851142380    2.22296884467136
O          -2.68767929462489    0.97965636475458    1.36103080488886
H          -2.73534005033679    0.54227619287289    0.47359357303339
H          -3.32017312950460    1.70100659986653    1.33797524310922
O           1.89564875669092   -1.69167678743216    0.30640741235142
H           1.31423728331310   -1.10405427833314    1.65181581467701
H           0.99518370407747   -1.79326692765802   -0.04546363882936
H           2.30203987593641   -0.97328906691240   -0.23188172524211
O          -0.15929992123973    1.37515220664574    1.34799100061067
H          -1.15874165528040    1.31247716599624    1.51432176881785
H           0.27080212174441    0.47054480877566    1.83214806438994
H          -0.09983097251617    1.21303121265082    0.33097699239897
N           2.56517597973193    0.42243425290511   -1.25906841566018
H           3.05323708444500    1.23171574321373   -0.89677224213225
H           1.58424438092006    0.67427015601022   -1.36970395276666
H           2.93846374533170    0.22178760785399   -2.17803705365499
