    23
        -45.36388330  Gyration_radius:  2.31806949652 Dipole_moment: 2.626
 S          -0.25327451506429   -1.60173808759035    0.31126595665398
O          -0.15218679296626   -2.73534087717978   -0.55330573870030
O           1.02838236099780   -0.94475489772379    0.58191226142815
O          -1.28109184380432   -0.62867972598257   -0.02075564343674
O          -0.72341701509715   -2.17105628110420    1.74636061291330
H          -0.46339508749884   -3.08645617181049    1.71425485118479
O           0.45633449788566    2.78563479870914   -0.27242089162201
H          -0.23836239906744    3.43402518525336   -0.14179247412158
O          -1.63137941068282    0.55449797658263    2.25480076230402
H          -1.66995133151187   -0.17141412412950    2.88241814133652
H          -1.68813219198361    0.12683986252222    1.36456602091440
O           0.75016991077289    1.24866621300183    1.68680044048033
H           0.96764442561691    0.32050271692656    1.22748295463982
H           0.67727576694637    1.93881919323910    0.88960315325298
H          -0.19902397822866    1.10385468713833    2.04153864825392
O          -0.51473631950857    1.10325231584814   -1.94272123511548
H          -1.00798511273179    0.52709284681410   -1.33374064395473
H           0.12196832581235    2.15908355844727   -0.99867371569530
H           0.18880844990862    0.50659885235422   -2.29164809451422
N           1.25619703576414   -0.88734299549513   -2.33991023088909
H           0.70367034035598   -1.62543417585575   -1.91136351719424
H           2.01842330533978   -0.70153106438246   -1.69861513185285
H           1.65406155873097   -1.25511979554737   -3.19605648621040
