    23
        -45.36026744  Gyration_radius:  2.3193943182 Dipole_moment: 3.830
 S          -0.81157941782339    1.13559824320793    0.83667804689578
O          -0.95465173421117    1.27665190844914    2.27085535113826
O           0.60045795748231    1.19206354157803    0.42272828555672
O          -1.46157663070781   -0.01975981132767    0.27547180724923
O          -1.49243193638347    2.41830959574858    0.19773144126489
H          -1.38313218787474    3.07604364068013    0.87747068675883
O          -0.30634040988026   -2.45624145076379   -0.59156453549051
H          -1.09657460249317   -2.31851733951577   -0.05559078487034
O           0.05904648685117   -1.00372694562011    3.00435353823112
H          -0.42100678684162   -0.16367656806875    2.79227475513067
H           0.51019775654853   -0.85091418741733    3.83743442584951
O          -0.89897419376628   -0.64696244183940   -2.30729635402922
H          -0.47047997513723   -1.86755444241000   -1.40196631755960
H          -1.33072991919986   -0.22542055968209   -1.54514212067028
H          -0.11838282500952   -0.07945254800044   -2.50624291282184
O           1.31260882381021   -1.18342000675163    0.78040530922000
H           0.64725760763184   -1.79294277835889    0.12954554050312
H           1.11914820381528   -0.19740084228024    0.54677689617838
H           0.91478688173890   -1.26271359608185    1.71087873899398
N           1.21515863880513    1.05310986327478   -2.39977221806802
H           2.16454403328531    0.72940335213244   -2.53469141326484
H           1.10039608368932    1.27835990511740   -1.41287036011415
H           1.10225814579421    1.90916348799329   -2.92746782612352
