    23
        -45.36388333  Gyration_radius:  2.31808742251 Dipole_moment: 2.627
 S          -0.55377872457318    1.40187185329076   -0.67450325293636
O           0.32959401738798    1.39119851574290    0.49474643599406
O          -0.04669137093840    2.15672733585517   -1.77710320771639
O          -1.03743996187556    0.06491625554667   -0.97788105978856
O          -1.87739595531906    2.17561133584959   -0.17043885587099
H          -1.75022067601845    3.06145948884661   -0.49550696971654
O           0.80558551565910   -2.34755093458096    1.37204585784592
H           0.25376084420332   -3.13099585126158    1.41426220506469
O          -2.61970903593540   -0.38217112054967    1.02134424605178
H          -2.14626750800829   -0.31032224529127    0.15570726344078
H          -3.11833146600428    0.43475284438268    1.10084806439473
O           0.93896016066566   -1.76654728357868   -1.11953714161503
H           0.94194806083926   -2.15382244235778    0.38425022360329
H           0.11711249511393   -1.25553635592191   -1.21732837811425
H           1.63993212333522   -1.09349123271536   -1.28786182943461
O          -0.35743580298950   -0.27918035453548    2.18218261894808
H           0.15840912673675   -1.15985780506365    1.90767081595248
H           0.00500150478488    0.46734661656554    1.52565342841262
H          -1.32658985712012   -0.39481797237597    1.87362959634227
N           2.35084540051963    0.50591135309569   -1.43487175431276
H           2.55338883876478    0.82958643068717   -0.49626234392968
H           1.58044907116901    1.07941501416162   -1.76849895401492
H           3.15887318954748    0.70549655416581   -2.01254699857058
