    23
        -45.36629874  Gyration_radius:  2.36401459613 Dipole_moment: 2.415
 S          -1.83102497692688    0.06419322289455    0.05943514916838
O          -1.11221772487870    0.07674808696078   -1.21258780846905
O          -2.48672022509454   -1.19437857976755    0.31282034872922
O          -0.99652729890544    0.55300574379601    1.14264908697307
O          -2.99298274478623    1.14332615376132   -0.08776267343458
H          -3.67304993040004    0.62556368376618   -0.50492819348137
O           2.41299097944744   -0.68444718546386   -1.02727150470539
H           2.16118250196624   -1.41736866307970   -1.59329774999751
O          -0.60967710567422   -3.05005397700814    0.13488848909750
H          -1.34410932557134   -2.39864617313087    0.10953061473785
H          -0.92875938059700   -3.78129481568209    0.66719100745993
O           1.05769673796398   -1.19166217529703    1.13408420952296
H           1.99690719649955   -0.88184256919611   -0.13741777409906
H           0.35285975317946   -0.53092873694156    1.25832070402030
H           0.58346591473598   -1.99555697143566    0.83844703343279
O           1.00353267981094    1.35725481887832   -1.53680836053396
H           0.08641964656117    0.88004186182609   -1.48289651911018
H           1.05149899163579    1.91142735359163   -0.58846726968408
H           1.66716004473476    0.57685794162321   -1.42292747257094
N           0.95499545498289    2.43466978298800    0.73302360188103
H           0.71570010001979    3.41206283918020    0.83178337055373
H           1.76232584571296    2.23092427377025    1.30830108998235
H           0.16833287557342    1.86010410405743    1.06389060054839
