    23
        -45.38252920  Gyration_radius:  2.27568470022 Dipole_moment: 2.965
 S          -1.77839616147604   -0.66566257154206   -0.19471011423222
O          -1.60948398301494   -1.06191101263573   -1.58640867521291
O          -0.90016295131109   -1.43327801003809    0.68331725808858
O          -1.66933400992726    0.76152514992091    0.01192404548273
O          -3.26068079291395   -1.05851846969696    0.20235829300422
H          -3.32761687736951   -1.96686549766109   -0.07564347967492
O           1.79473834249353    1.08370059291262    1.39586085285573
H           2.38586656110965    1.46438550171267    2.04631597326732
O           0.52808760610433    2.01967693803041   -0.87338320792211
H          -0.37102052348666    1.76388468214488   -0.58530095134573
H           1.08976297148487    1.87697005095529   -0.09066730879243
O           1.71818360737033   -1.35821239921933    0.11277082608130
H           0.80654156694948   -1.57650805850256    0.39553215825878
H           1.35029310855530   -0.80436681004597   -1.33222255316755
H           1.95037548746843   -0.56036561021861    0.62117180289913
O          -0.54906259072093    0.52025322972687    2.43249077949390
H          -1.13158214547846    1.03457899809934    1.85479630724826
H          -0.63899512490046   -0.37776682460294    2.06142494509296
H           0.93490283155366    0.90331829993868    1.86919772866263
N           0.82465770349946   -0.27727949490581   -2.09576537978108
H           0.79356954301765    0.74202941349189   -1.78552558064487
H          -0.17335190368244   -0.63067295925820   -2.05207124631248
H           1.23270773467509   -0.39891512860473   -3.01546248334607
