    23
        -45.37364228  Gyration_radius:  2.26194072014 Dipole_moment: 5.690
 S          -0.49525742325851   -1.73471859813834   -0.01553327665871
O          -1.18658879328202   -0.86037135028320    0.89923773716680
O          -0.80718808848986   -1.53002164028349   -1.41290252811302
O           0.95891590074691   -1.70919529465417    0.20679326641400
O          -0.95880520475553   -3.20984942342722    0.33134214339424
H          -0.73295655815440   -3.69242164830594   -0.45769164819901
O          -0.41393417684346    2.26636551480093   -0.63760585689258
H          -1.24799258071676    1.83061905894902   -0.91760711252569
O          -2.44212464278409    0.57659080684436   -1.16512706550493
H          -2.74665252057456    0.36954688971558   -0.27716237848939
H          -1.90201488339761   -0.19556215878421   -1.41835443061452
O           1.34900137002491    0.31080014120908   -1.54640018376939
H           1.16092327394408   -0.51150468083013   -1.05961672113257
H           0.96785456568363    0.17053826156358   -2.41641844530400
H           0.28872702095893    1.71948904885589   -1.02694150504609
O          -0.28548037837733    1.46128123179373    1.83329873003007
H          -0.40879607934898    1.95840036712826    0.97454663154687
H          -0.77895323639349    0.62740462241555    1.68861313776714
H           1.04226041246024    0.96392014558020    1.63674790624507
N           1.97702134010914    0.43708778855482    1.29904695650209
H           2.35106495103464    0.91134580195990    0.47865130438405
H           1.63454927114137   -0.51379213996133    0.97479287198797
H           2.67642645029103    0.35404726529701    2.02829045682179
