    23
        -45.36629884  Gyration_radius:  2.36413162527 Dipole_moment: 2.414
 S           0.62024817846247   -1.61791608842808    0.59207533057673
O           1.17238122440883   -0.98545420867971   -0.60391076644099
O           1.52520269149758   -1.56732803314883    1.71306321677602
O          -0.72604688847885   -1.14732867045790    0.86495547017030
O           0.45422105576348   -3.16002102706435    0.23006922539951
H           1.32474316972869   -3.48992201682197    0.42526117792723
O           0.18563405012844    2.44980959110154   -1.14780422876868
H           1.12934345262983    2.60959121224261   -1.07810599173922
O           2.13612682517348    0.98603805788032    2.03911931544036
H           2.39166884398775    1.06745461770222    2.96001668632340
H           2.00761780858037    0.02523523562042    1.88228821501333
O          -0.36945181156993    1.50138232857724    1.20869071676511
H           0.53086253005790    1.49126835085889    1.59318982164208
H          -0.10544302611150    2.17594378872492   -0.22871617210979
H          -0.61328660610314    0.56028208006155    1.14710554491110
O          -0.25915823323491    0.21626802233187   -2.25450350006796
H          -0.08453112855766    1.17947137834218   -1.93014362010510
H           0.36820423106542   -0.34143602376839   -1.64778474002258
H          -1.25814312537859   -0.03441398919377   -1.87640859018974
N          -2.43122852117882   -0.40314419732270   -1.15046314960403
H          -2.99384580371860    0.38651463754234   -0.86039082168269
H          -1.97249569394379   -0.79675905849424   -0.31809646151025
H          -3.03262324318955   -1.10553598756613   -1.55950668865711
