    23
        -45.38252910  Gyration_radius:  2.2757549386 Dipole_moment: 2.960
 S          -1.86672820300978   -0.01921568388402   -0.39920278362389
O          -1.68589428940258   -0.29254135012239   -1.81872288104404
O          -1.37463958442332   -1.12438500103596    0.41823146500910
O          -1.33389977766827    1.26128255277319    0.01030306420421
O          -3.43032010676750    0.05364456181514   -0.15625157057698
H          -3.75137206104598   -0.74719903954546   -0.55946019296878
O           1.88779291986370    0.27288800653296    1.64487639966790
H           2.49688503937056    0.36233043013324    2.37865956440902
O           1.22973704656270    1.81818730001619   -0.54816060008253
H           1.63124972714328    1.41347751237939    0.24143027357619
H           0.27073961736292    1.84098699204096   -0.35668268760626
O           1.17707975026575   -1.85054041056984    0.03213535223675
H           0.21877482646773   -1.78762283838981    0.22287372943497
H           1.15863564232584   -1.04999418368598   -1.34237640263019
H           1.59507958278646   -1.23449819126520    0.66041061583484
O          -0.60936651279756    0.39831615067979    2.44121559458525
H           0.97022639006498    0.33318181659817    2.03258017361955
H          -0.93471551681766    1.13878757920045    1.90910803253400
H          -0.93985148961070   -0.37111032768720    1.93992461268073
N           0.91095082792522   -0.29832748809075   -2.05698500747071
H           1.17174846744145    0.63372105705103   -1.61029056599652
H          -0.14629582442132   -0.30741679562207   -2.12690805892910
H           1.35418353838183   -0.44395265931714   -2.95670813686495
