    23
        -45.36629908  Gyration_radius:  2.36401656748 Dipole_moment: 2.415
 S           1.58063576066313   -0.46307861533526    0.80219569640096
O           1.48028093542664   -0.87787884638605    2.17913936109633
O           0.89690479952177   -1.37643293059166   -0.11055729992904
O           1.20848930433988    0.91694871274066    0.54575990584787
O           3.12629775486206   -0.55128594005914    0.42815299300504
H           3.39714858925950   -1.30482552922371    0.94151511082715
O          -2.47105139184028   -0.43539940157219   -1.02662404128843
H          -2.69182927634120   -1.27076849091239   -0.60898099048743
O          -1.10485757611395   -1.14597443507897    2.67345731945195
H          -1.19208951731083   -1.03467733340666    3.62211801397130
H          -0.13954363940011   -1.15155022331064    2.49350426973567
O          -0.22767048043348   -0.58820337000935   -2.19246440096013
H           0.29445871779689   -0.97982599220778   -1.38872146695297
H          -1.19559084702002   -0.56407621922318   -1.83898583108632
H           0.09507809603440    0.46218693941626   -2.20992574953268
O          -1.45422096488642    0.89874086295864    0.96118242417501
H          -0.49924202976098    1.03557378255347    0.82647952109546
H          -2.16551530496678    0.16047584417174   -0.28130614403465
H          -1.50219822749623    0.20932202643248    1.65456284846446
N           0.55055128375826    1.79085984184840   -1.96826099450772
H           1.28538867117896    2.14782433860671   -2.56402321118114
H           0.92470031617562    1.64988916739671   -1.02026983407579
H          -0.19612497346178    2.47215582121262   -1.91794752003545
