    23
        -45.37890807  Gyration_radius:  2.28774726875 Dipole_moment: 2.690
 S           0.84231537411737   -0.45852017877572    1.35900353987605
O           0.46540112057494    0.60019315434641    2.26333320860175
O          -0.24720178517710   -1.41410372703621    1.13716808731284
O           1.38531055953529    0.00615821562605    0.09520575274525
O           1.99977275646051   -1.26780607315147    2.07846905402601
H           1.85888444618562   -1.03213521677407    2.98960594143891
O           1.02167281008737    2.52699052564658   -0.78442941769174
H           1.33389283985603    1.68656282115172   -0.39960745818563
O           0.05645646960745   -2.82618796081980   -1.12650198926691
H          -0.05607975361447   -2.40838496419725   -0.24867619966528
H           0.86924872930854   -3.33090709749495   -1.07701876990317
O          -1.07200873120992    2.28831117177268    0.88464502740307
H          -0.55839161860182    1.81305278473670    1.57013983914710
H          -0.38717856089198    2.65098100537304    0.28557089253809
H          -1.65953615033887    1.08389454272861    0.13241234249403
O          -0.02269267729668   -0.32790252068073   -2.16216879213885
H           0.92633327901061    2.36650919651566   -1.72586515116734
H           0.65212241093537   -0.14385759456792   -1.47845932795155
H          -0.06215015325171   -1.30204764914541   -2.16656647111968
N          -1.83938481404085    0.11437546619208   -0.30944360065891
H          -1.40779643968663   -0.58099547627782    0.34670124951902
H          -1.27299593257664    0.02329092279545   -1.20593400917631
H          -2.82599417898044   -0.06747134795776   -0.45758374818460
