    23
        -45.36629903  Gyration_radius:  2.36400015579 Dipole_moment: 2.415
 S          -1.67785985409218    0.49746582328613    0.54242032952535
O          -2.76922628126681   -0.15787665799677   -0.13397014727407
O          -0.86875999915033   -0.42882339236193    1.33116315773669
O          -0.84697922098790    1.33893759618893   -0.30043015946918
O          -2.34526282851638    1.49307477845816    1.59133279041464
H          -3.11607852644326    0.99900304443351    1.84896428116515
O           2.10172347158691   -1.68587836725257   -0.30148651662483
H           1.66848367888842   -2.53313342973635   -0.17709628783860
O          -1.68107630173768   -2.10428664522093   -1.55727102495669
H          -2.30163044305518   -2.27215257531496   -2.26909165327394
H          -2.12288819877104   -1.45678065231707   -0.96579961555975
O           1.58930212868337   -0.13163724690062    1.63172887548264
H           0.56166530232103   -0.25537658920752    1.61106477614307
H           1.90904752596717   -0.80258002228873    0.91767094371776
H           1.72903919965544    0.85829490228053    1.17485405678683
O           0.42213231061928   -0.45538410520460   -1.86039888462127
H          -0.00404184877377    0.28206245826544   -1.38776189749906
H           1.54599505765335   -1.20161446603384   -0.98017490967388
H          -0.27488821997907   -1.14082407197069   -1.91322414586285
N           1.68106788965014    2.08572582928167    0.45266362295764
H           0.70992417876031    2.02414488571529    0.11843910976794
H           2.29421203481040    2.10609393947346   -0.35225199840363
H           1.79609894422042    2.94154495447976    0.97865530733482
