    23
        -45.38252915  Gyration_radius:  2.27569231488 Dipole_moment: 2.963
 S          -0.51498825531287   -1.39720380617961   -1.19429342852973
O           0.67423463687100   -1.28959073817690   -2.02890191227202
O          -0.17179497458618   -1.80982833039800    0.16349769464650
O          -1.34706677138870   -0.21483789482381   -1.22732192086238
O          -1.38566398342264   -2.56858183221955   -1.80983452862180
H          -0.76211118486546   -3.28369499105698   -1.89231593719548
O          -0.46086308634167    1.44865393638718    2.00791462230676
H          -0.74612440040313    1.89722088889180    2.80471221806434
O          -0.22908605789483    2.15464073279971   -0.65231513807421
H          -0.77773307724004    1.41772471797832   -0.98815032006213
H          -0.33556969994718    2.12267722427158    0.31524935202802
O           1.61428700374281   -0.28532073913641    1.45694462919158
H           0.99559677946440    0.36304680600615    1.83869865466989
H           1.04177767676850   -0.99602095967488    1.10221191994479
H           2.02993050369213    0.35101610515936    0.05924536631751
O          -2.12813449097373   -0.45845310813707    1.32322893085789
H          -2.36338124329301   -0.18133889883990    0.42580582201021
H          -1.46330349958068   -1.15206564860846    1.15232084679790
H          -1.14547958327623    0.74730064503509    1.82004036572288
N           1.93869298687731    0.71388886330948   -0.93918671917578
H           2.81495944052826    1.05050206697016   -1.32127050683013
H           1.17996066377428    1.46231491986651   -0.91517101853890
H           1.54186062681977   -0.09204995941800   -1.50110901241353
