    23
        -45.38252904  Gyration_radius:  2.27561044354 Dipole_moment: 2.971
 S          -1.65327562298065   -0.33218717496798   -0.89406666382858
O          -1.04163249924777   -0.58773065347658   -2.19135027637197
O          -1.24614737195741   -1.33236692625502    0.08829775688897
O          -1.46077746547760    1.02317228994893   -0.42725489451491
O          -3.21402311112551   -0.51346468375140   -1.09507547220200
H          -3.28153291544715   -1.35922847214140   -1.52748667076189
O           1.28419598964767    0.60046137442624    2.08170631809238
H           1.64127587291099    0.80138054798213    2.94749463086284
O           1.03796641796886    1.98992666440729   -0.29256643584790
H           0.07226546780433    1.85712116337439   -0.37351124940540
H           1.25933570519940    1.66582395661540    0.59880689315109
O           1.39175170571819   -1.63048344696931    0.46061484554423
H           1.51607146393366   -0.94679124451053    1.14324243442450
H           0.42065791470592   -1.72387754308728    0.37648262751117
H           1.63650979555800   -0.86018689901907   -0.90954328564392
O          -1.32411066425724    0.32206575210099    2.15224058296292
H          -1.59297061352847    0.98577967834714    1.50016891255971
H          -1.37871292943968   -0.50254964672619    1.63378678575957
H           0.29691396367636    0.51359695981633    2.19838832987835
N           1.48608212091772   -0.16812700629673   -1.70669657255587
H           1.46381986818724    0.79942025980959   -1.25991246716541
H           0.50553081580916   -0.35207486132478   -2.06369008281983
H           2.18080610142386   -0.24968005829478   -2.44007603651817
