    23
        -45.36629901  Gyration_radius:  2.36419773187 Dipole_moment: 2.416
 S           0.18172642291582    1.20574742060968    1.36843358555559
O          -1.00640690973467    0.36359862407990    1.25097404979846
O           1.04721529815090    0.79597528060490    2.44600747192836
O           0.83674831234842    1.37728871770578    0.08374290614708
O          -0.34997015022415    2.65530451927050    1.75896762815552
H          -0.41523422351434    2.57869278383500    2.70479692233934
O          -0.79048391018959   -2.31878498249515   -1.16468494241883
H          -0.92673053705476   -2.87022333945681   -0.39114461709895
O           1.58556382040346   -1.75884054258275    2.01999498259357
H           1.32567355816385   -0.84246524444080    2.25879252577878
H           2.41991489725579   -1.91712879709792    2.46582260395221
O          -2.07078210236963   -0.14421146306062   -0.94719508169915
H          -1.49935355228935    0.52529769436807   -1.60636345512354
H          -1.66280256373308   -1.07859650076625   -1.09839595451401
H          -1.72209299753018    0.10272251035808   -0.00450508071411
O           1.46453335483721   -1.15332174028172   -0.59772402721378
H           0.12063529758824   -1.91867744457474   -1.04771517813696
H           1.32737701741237   -0.20206972971470   -0.43899870612282
H           1.61613419050612   -1.52591560797595    0.29482924187966
N          -0.57292662031424    1.38156720167675   -2.26730033162032
H          -0.92203987268073    2.26201461106221   -2.62122098209103
H          -0.04204139382281    0.91883219066975   -2.99411377033963
H           0.05534267383225    1.56319384840687   -1.47299978138562
