    23
        -45.38252912  Gyration_radius:  2.2757171381 Dipole_moment: 2.963
 S          -1.50617565796417   -0.61671455927509   -0.99772438448534
O          -0.77373095523455   -0.76084116024229   -2.24874075021041
O          -0.99523843774224   -1.52894362328512    0.02131025635649
O          -1.58756595981132    0.75115392448541   -0.53547298268719
O          -2.99341579187128   -1.07168184416716   -1.29826941068418
H          -2.88153093714650   -1.91742508279288   -1.72152170818934
O           1.01782182357399    0.81567638137802    2.15452121796109
H           1.27631359610551    1.07307120385219    3.04019415293724
O           0.68829505256374    2.14079281268396   -0.24644554415365
H          -0.23144094593240    1.83975305827221   -0.38908872663137
H           0.90352504910472    1.86070571127716    0.66115528846227
O           1.62364382184487   -1.36063949574147    0.56940850333825
H           0.69186034300730   -1.62336458256198    0.42293318321626
H           1.81954762505242   -0.55866621785041   -0.79063314620322
H           1.58027427266693   -0.66585891495610    1.25081368156226
O          -1.49993679128029    0.08273850812896    2.05734302333411
H          -1.37321786928545   -0.73352406064161    1.53766295833723
H           0.05568507417313    0.55612303394475    2.20711365547075
H          -1.84295670655941    0.69399851514568    1.38945795744677
N           1.60299459638333    0.09652994689468   -1.60348118630292
H           1.38074917850726    1.04467716081895   -1.16980823184238
H           0.69604382862840   -0.25714709048527   -2.02201469863745
H           2.34845580122026    0.13958638511078   -2.28871312840433
