    23
        -45.37890763  Gyration_radius:  2.28809273824 Dipole_moment: 2.646
 S          -1.61457821218246   -0.40276575576910    0.06670824201201
O          -1.52692297160455   -1.69900649069111    0.69383542911474
O          -0.93619317954069    0.65425399292023    0.79577184198981
O          -1.17929231919605   -0.42982677527960   -1.33262892048811
O          -3.15359156025145   -0.02456503297992    0.04433435209098
H          -3.55880687217637   -0.87515410394053    0.17763078904020
O           0.92540078713500    0.13686744649872    2.67361134693603
H           0.12490366749836    0.34021814412172    2.15416893188776
O          -0.46888601278157    1.98876784263174   -2.25844358628459
H          -1.22374496118056    2.57755543847164   -2.22046587087500
H          -0.80227380944461    1.10481611719974   -2.00299126980617
O           1.04887728653159   -2.13085488610519    1.23604995570306
H           1.41010899392212   -1.39813359995122   -0.06551184448339
H           1.16181808154957   -1.46064916890665    1.94145070686080
H           0.07796957102437   -2.19111338199942    1.12076308637979
O           1.29141212899454    1.74852412383727   -0.21781397287166
H           0.91571609760278    2.11416309148476   -1.03979611208958
H           0.49331374381903    1.51427643500811    0.29712688223313
H           1.53573531001499    0.85941753044389    2.51030361534387
N           1.40885697268065   -0.77696499126820   -0.94968167682985
H           0.41742828785548   -0.77236649966726   -1.29193197779496
H           2.05217795737819   -1.11033653202385   -1.65920704446244
H           1.60057101234660    0.23287706595692   -0.67328289361653
