    23
        -45.38252901  Gyration_radius:  2.27582713598 Dipole_moment: 2.958
 S           1.70729003425863    0.79302821736075   -0.31820513139576
O           1.35570283019775    2.08050382911028    0.26592308159756
O           1.66916852541934   -0.26891180709978    0.68311304346650
O           0.94295756740645    0.47323992678986   -1.50331719834343
O           3.21665291379005    0.91360976564184   -0.78339747746771
H           3.65642946866985    1.25426751808204   -0.01048457986742
O          -1.57311404257350   -1.95999761914061   -0.16798005094072
H          -2.04495025469200   -2.78803247339699   -0.26377305160451
O          -1.73433306736103    0.53082974379075   -1.35198092225474
H          -0.79553325752481    0.56052711546885   -1.62528171155771
H          -1.87188275327147   -0.37929693789289   -1.03396771040574
O          -0.63433914341326   -0.56814536415741    2.02195501397690
H          -1.06565727320291    0.88080469214924    1.52773264498591
H          -1.07973885347750   -1.17312263702307    1.40178868640561
H           0.29322459838749   -0.53181408439746    1.71059791528038
O           0.90690468014070   -2.15951855318826   -1.00194017384127
H          -0.64866212911151   -2.12267092283541   -0.50674677899299
H           0.93086862235278   -1.46697921678897   -1.67783414374393
H           1.33015582673269   -1.71584854148904   -0.24249164121945
N          -1.15081427052990    1.73718943697289    0.89803711672816
H          -1.56075549301315    1.38953077165534   -0.02241050628018
H          -0.15667548060907    2.03591822671567    0.68520824716108
H          -1.69289907860194    2.48488892366429    1.31545532836483
