    23
        -45.38252913  Gyration_radius:  2.27576434363 Dipole_moment: 2.961
 S           1.55192990911018   -0.66198952913527    0.89321025234749
O           0.28878038670192   -0.80597410030254    1.61111369632081
O           1.76232042853045   -1.76914410927998   -0.03002476675905
O           1.69980360506036    0.63651179913967    0.27414389638877
O           2.69807558490902   -0.76697826576707    1.98155059850815
H           2.64819564845794   -1.67511639672093    2.26380485541309
O          -1.86584342745412    1.68030985303913   -0.19942614316534
H          -2.53797442295062    2.35929988452810   -0.13109837036289
O           0.24505287203432    1.18572876243586   -1.91143898147311
H           0.92118566062701    1.13412128627090   -1.20641834472468
H          -0.55781087824877    1.50588717714689   -1.46273151617408
O          -0.17314716414750    1.79150405878923    1.80261721030904
H          -1.26939832623340    1.79486731139225    0.59239066873249
H          -0.16539874864559    0.83871013460206    2.01380279113295
H           0.66431997114668    1.89844142514584    1.32876825313141
O          -1.91639645644093   -1.06151367073637    0.10787016123752
H          -2.11921502216516   -0.11554765244273   -0.00612235717878
H          -0.98494040804397   -1.41105779510730   -1.13309709201419
H          -1.21862739771044   -1.08502726062557    0.79432940638675
N          -0.13656079160635   -1.40178895514212   -1.77911863825647
H           0.01599644066599   -0.38339614230226   -2.05443825727566
H          -0.23904328551427   -2.01672120260060   -2.57818768458399
H           0.68869584193227   -1.67112663232603   -1.17149962793806
