    23
        -45.38252905  Gyration_radius:  2.27577461714 Dipole_moment: 2.959
 S           0.70956981806818   -1.76960876166233   -0.09857779047094
O          -0.41094982705405   -1.57758745384846    0.81763844695311
O           0.24329992835087   -2.01329471598396   -1.45709886574897
O           1.69258174067880   -0.71268928349203   -0.01081730323079
O           1.44212158207792   -3.09554061921970    0.36442296683750
H           0.80723370540453   -3.77661182350304    0.16452796408095
O          -0.36145223201581    2.15035869926362    1.26048013700187
H          -0.45611792862225    2.88786373943610    1.86427578314662
O           1.08616267007670    1.68609337313568   -1.04584504230152
H           0.63472425890949    2.05929877309243   -0.26778273115340
H           1.52019071770722    0.87354913021258   -0.71665496121574
O          -2.15741228979030    0.35457956229162    0.18127823747376
H          -1.68719958091179   -0.44196344581847    0.50230550526747
H          -1.70718227124176    1.10006058486465    0.61773632157476
H          -1.56409198677750    0.35323846267868   -1.29470656570397
O           0.85927566479693    0.12351543075492    2.39511592460942
H           0.10950724327265    1.43114018116483    1.76723796704981
H           0.24793891553293   -0.57515314297703    2.09385442071320
H           1.61129948273157    0.00327220465722    1.79750878029234
N          -0.85395043058428    0.26741427121352   -2.08549774292959
H          -1.25951636277162    0.41880271276389   -3.00187167106063
H          -0.43478788682293   -0.70103660881708   -1.98969648088001
H          -0.07124491101906    0.95429870983588   -1.85783328031254
