    23
        -45.38252907  Gyration_radius:  2.27572466225 Dipole_moment: 2.961
 S          -0.62787475102303   -1.49287691683904    1.01071345411729
O          -1.69180864149827   -1.83502453848969    0.07613088888163
O           0.68636183272832   -1.64422106481543    0.39294360622879
O          -0.80768529651562   -0.20144164112248    1.63613902434421
O          -0.69885938723155   -2.56317114985338    2.17617902698987
H          -0.71085811834521   -3.39330119513133    1.70960758832356
O           1.58303343418546    1.93589187444933   -0.29820710144092
H           2.26822438816857    2.60512971674288   -0.30087870306765
O          -1.15508903181538    1.94432279830615    0.06485363830831
H          -0.21638320906595    2.15965962891091   -0.07987255063846
H          -1.15131228446362    1.28322766168149    0.78586716752217
O           1.10334472786396   -0.27716286066066   -1.87534103726115
H           1.41407802234481    0.55768690204093   -1.48116320191872
H           1.08719089809829   -0.91268080928542   -1.13066259137184
H          -0.47024534101492   -0.08293647654621   -2.00459404358854
O           1.81765776673034    0.32026948261551    1.75609317718360
H           1.70438592167322   -0.51819051624954    1.26967432364223
H           1.74437163752925    1.37171509756820    0.50905744883708
H           0.95089535998056    0.42804695748233    2.17373906662235
N          -1.48724720699806    0.05080947564814   -1.71327486820517
H          -2.12332661776008    0.09653245277756   -2.50096637084593
H          -1.50998051834045    0.92782702886962   -1.10784240019770
H          -1.70887358524083   -0.76011192809397   -1.06819555246138
