    23
        -45.36695722  Gyration_radius:  2.45426597122 Dipole_moment: 5.346
 S          -1.81780226270698   -1.30201104184480   -0.24720397702508
O          -2.18736841286871    0.08974506533438   -0.43828617920011
O          -1.22489446266817   -1.86994750771726   -1.46091719401871
O          -1.00088578667066   -1.52904980452685    0.92074262956166
O          -3.17899860570061   -2.09036052653779   -0.01342400028712
H          -3.71585920430842   -1.76946884238881   -0.73125590083314
O           1.16197450247252    1.71766594740699    1.27841411209930
H           1.29530084792841    2.53680406869863    1.75750764791079
O           2.74464344370698   -0.16155202378086    0.06233540002139
H           2.20436463329951    0.47389920878964    0.56860322882764
H           3.62984666394297    0.20254304660877    0.02160310425923
O          -0.51691592205572    0.30259850133656    2.67953569688825
H          -0.80733786449303   -0.35523647060041    1.99599391862101
H          -0.13838093656986   -0.22781428102175    3.38350829800354
H           0.50923248794798    1.18677792101926    1.81752108497871
O          -0.26970045628668    1.75504425815485   -1.08640138742137
H           0.45076733166531    0.53977715351008   -1.70629362627503
H          -1.09694878253765    1.27122159045661   -0.85035621368662
H           0.19682777345421    1.88598725886847   -0.24103147939880
N           0.86739467245778   -0.43521498604285   -1.90414950125114
H           1.62699399337691   -0.58268880318613   -1.21581937874583
H           1.21166775789073   -0.51783072541162   -2.85428891605509
H           0.05607858872578   -1.12088900712760   -1.73633736696965
