    23
        -45.36695729  Gyration_radius:  2.45377218933 Dipole_moment: 5.341
 S          -1.38482151061167   -1.65563051747765   -0.63073052768649
O          -0.74666691744388   -1.66741563979804   -1.94966961265497
O          -0.48442747877292   -2.14424830372146    0.39909420493161
O          -1.98004208448142   -0.37794192753296   -0.32051338531149
O          -2.57499266717793   -2.70749750371476   -0.70970770796484
H          -2.10290127365685   -3.53302879719057   -0.75560806262439
O           0.74296736219583    1.53269472266766    1.74258569636822
H           1.02311846462968    1.83081481754691    2.60913508928354
O           0.89033495747942    2.46469478395014   -0.83137531682394
H           1.49288871194834    3.20949263956251   -0.82453101470589
H           0.77647917174904    2.18911692469756    0.09765320772195
O           1.76000169027472   -0.83249594770900    0.73477495767181
H           0.97462292437439   -1.43026989909392    0.73961846756057
H           1.63419835888663   -0.41997147601440   -0.74641785781099
H           1.47403763660027   -0.03471056609700    1.21561097705503
O          -1.73540044643538    0.76849789453664    1.98350858826097
H          -2.39967940121630    1.45634502308997    1.90717310778159
H          -1.83391923511068    0.22947091186022    1.15647768805657
H          -0.20424666574436    1.23227912146941    1.84775161924362
N           1.27757376661488   -0.09309599549204   -1.71046945919502
H           1.01982743472307    0.90523245000185   -1.61260987060108
H           0.41004439582986   -0.69857728365488   -1.90314254477386
H           1.97100278536813   -0.22375543189626   -2.43860823375049
