    23
        -45.36695723  Gyration_radius:  2.45418318135 Dipole_moment: 5.348
 S          -1.63099371052895   -0.29965366801860    1.52003831990414
O          -0.33944827594328   -0.53758108906950    2.14070297424958
O          -1.93596803939431    1.13189988545413    1.45039747225113
O          -1.79079863317540   -0.95729975151066    0.24530579004762
O          -2.71288490565498   -0.93150320781557    2.49949645704167
H          -2.44708463715031   -0.57312718832163    3.34051842153422
O           1.79269979341527   -0.96763833061010   -1.33638501827817
H           2.56991049526520   -1.48816651844551   -1.54443350375968
O           0.42586362744139    1.11736474330321   -2.47631935699784
H           0.87747983069639    0.32544375370990   -2.12861678958896
H           0.97440416241413    1.45707378905270   -3.18450986938742
O          -0.08084876307235   -2.65666070130016   -0.68762220151851
H          -0.71498031447859   -2.04869376548845   -0.22652394431754
H          -0.58441437070730   -3.02934532234511   -1.41410229625598
H           1.08358256767029   -1.62290333934548   -1.07877398549492
O           1.75451400221423    0.53451633850921    0.98443474309481
H           1.89872058202413   -0.04782924978566    0.21664883823392
H           0.78953814062511    1.60857275972915    0.44065678292888
H           1.08346259825652    0.06792844527930    1.53771026694407
N          -0.04877039387748    2.13621921360202    0.01396266637567
H           0.03868145375178    3.14091593468273    0.11910036969163
H          -0.90578523172019    1.77413194190306    0.55312519965470
H          -0.09687998806158    1.86633534683464   -0.98481130635593
