    23
        -45.36695722  Gyration_radius:  2.45397717378 Dipole_moment: 5.343
 S          -0.88294420270715   -1.97569002304453    0.61236617646043
O          -0.84585761058173   -2.40868010102249   -0.78700645522488
O           0.45455546722199   -1.85082874903909    1.16503279491887
O          -1.69960382930408   -0.80079796999350    0.80164137048924
O          -1.58348207755316   -3.15449053890348    1.41786146087769
H          -0.92073952827188   -3.83695417695571    1.37982427150844
O           0.80570190386732    2.20420829350053    0.65543522668966
H           1.28416521782043    2.86775067524006    1.15451057724815
O          -0.38009026294838    2.03393702076520   -1.81051687480202
H          -0.10985612775113    2.80893880545343   -2.30460996064071
H          -0.02415655088186    2.13990340777648   -0.90826353982330
O           2.07492374456023   -0.15953606450062   -0.01159854941107
H           1.75066593421820    0.70409395656328    0.30220746898951
H           1.60176919931322   -0.82713986921477    0.54034301528907
H           1.25224288097018   -0.40481943208357   -1.29359587530391
O          -0.97377284763013    1.19896329252079    2.27014171765999
H          -1.80296552151165    1.67671125368384    2.33647889395996
H          -1.20112747893449    0.36465473904708    1.78377626501087
H           0.13353484718720    1.81751102471018    1.28569009154874
N           0.46147956237136   -0.55771552902881   -2.01092616030745
H          -0.15686003097156   -1.32488401009332   -1.58029090390899
H           0.81653574937229   -0.85258619689065   -2.91375661071878
H          -0.05411843785926    0.33745018151419   -2.08474438050710
