    23
        -45.36695730  Gyration_radius:  2.45381575147 Dipole_moment: 5.338
 S          -0.65159496223832    1.83836306198139   -1.11898198720763
O          -1.31188397009019    1.80058030533254    0.17426014575857
O           0.70945928335147    2.37003650872921   -1.01002112575887
O          -0.69437663620854    0.58186482981084   -1.82790385702381
O          -1.46349039958344    2.88676827602588   -1.99696491310859
H          -1.52809134638007    3.62907868899526   -1.40423661592789
O          -0.58793899100405   -2.16040143339921    0.96177694026890
H          -1.08602002324468   -2.80898199157763    1.46129067231174
O           1.95794419550399   -1.93010071603688   -0.02936128951275
H           2.47307311187991   -2.63956476129949    0.35684333701516
H           1.03595705606718   -2.06491084189737    0.25995817803211
O          -0.18084546099115    0.35140781048403    2.04285627062162
H           1.15102541224194    0.60768293635082    1.30776292729294
H          -0.72892685838016    0.93266595207748    1.46325296167771
H          -0.41164581361361   -0.55807978863938    1.78009868236353
O          -2.09782777740342   -1.43845482890992   -1.03413329630273
H          -2.06093038892122   -1.99418069185706   -1.81517963653840
H          -1.17886339551285   -1.88245909454693    0.20546909465624
H          -1.64463093379413   -0.59722593852317   -1.30115933647958
N           1.92457056731715    0.73608564435810    0.56712145726405
H           1.50413612115529    1.41144555814972   -0.15635604085564
H           2.09785651136042   -0.19560457252658    0.14929052497123
H           2.77304469851336    1.12398509692010    0.96431690648867
