    23
        -45.36695727  Gyration_radius:  2.45413140129 Dipole_moment: 5.344
 S           0.15186134641648    1.70650155525244    1.45766085925408
O           1.09533002832571    1.90993403097824    0.37208640380267
O          -1.19919280942331    2.12873468052739    1.07888908404577
O           0.17638407792701    0.37061667378798    2.00335330087354
O           0.60699553407912    2.68588773645154    2.62501277035459
H           0.72080067280206    3.50710534249195    2.15696117589556
O           1.04543615424746   -1.94121985399754   -1.03647742151976
H           1.71894603188495   -2.46721690869964   -1.47003879572153
O          -1.67042876871750   -2.07378314783851   -0.68667120220570
H          -0.69704731496630   -2.08660470370547   -0.75253375445285
H          -1.99373241683404   -2.76080130118735   -1.27092199502731
O           0.61125445032988    0.65606141576065   -1.87831746965187
H           0.93627403331041    1.19179041012916   -1.11575565312191
H           0.87914246698691   -0.25896027740783   -1.67725598281077
H          -0.87639011872561    0.68964140336910   -1.47039122483275
O           1.95091052234624   -1.38904553171294    1.34244286968399
H           1.79824334977665   -2.05275874702941    2.01800883834170
H           1.40602012989071   -1.72566179711403   -0.12978604815958
H           1.35342710068568   -0.63615990894834    1.58839001562818
N          -1.81112050095888    0.64366486739290   -0.93431395074923
H          -1.65344656395151    1.24045498932176   -0.05372323163700
H          -1.96702566995168   -0.34988874119454   -0.68694062016241
H          -2.58264175547470    1.01170784337553   -1.47967794782999
