    23
        -45.36695724  Gyration_radius:  2.45440018744 Dipole_moment: 5.347
 S           1.80801914515582    1.33604347938772    0.09062735541105
O           0.60841330044381    2.14668755852504   -0.02693717229995
O           2.03193871099952    0.90908115005959    1.47438381036265
O           1.85465217214887    0.23261527119007   -0.83847216074612
O           3.02363255218673    2.29387509864841   -0.27523481588586
H           2.83574889883179    3.05953762850375    0.25851944247612
O          -1.88370221971951   -0.85437562535877   -1.28657071249459
H          -2.65307727624741   -0.84281193896586   -1.85770281943661
O          -0.76306073378889   -2.59240837156507    0.51296576898290
H          -1.40661584924995   -3.28440930264753    0.67046195454314
H          -1.13137001300531   -2.02306975617154   -0.18860480600654
O          -1.65455549778968    1.04654857438205    0.70754295633651
H          -1.85692472467146    0.45247648696792   -0.03783192204669
H          -0.81180047992988    0.16176361199609    1.64976060378038
H          -0.90233112428809    1.60350257441972    0.39438000192882
O           0.13280146586934   -0.07873426244204   -2.74129733964869
H           0.56729889872726   -0.75927671502591   -3.25927241151573
H          -1.11820702656334   -0.54546177750658   -1.84976128565328
H           0.78537968595252    0.15303164022738   -2.03088587782612
N          -0.05466075029642   -0.47198368588681    2.08368962183781
H          -0.17803662566646   -0.58459617162249    3.08379376867730
H           0.87534768205240    0.02499988052210    1.87238446592733
H          -0.10889017114868   -1.38303534762676    1.59406156329353
