    23
        -45.36695720  Gyration_radius:  2.45393104337 Dipole_moment: 5.340
 S          -1.26081776852388    1.41208453079565    1.21390150321051
O          -0.11656536766161    2.32166893377942    1.31600869796013
O          -1.77212581599829    1.35258625958330   -0.14440817541817
O          -0.98409780824933    0.11611286288713    1.78567003618221
O          -2.41749792720584    2.06149966966840    2.09106770436024
H          -2.65339478144510    2.82232687809230    1.56955494801476
O           0.16657315102444   -2.09502351314529   -1.23270338090265
H          -0.07227522558650   -2.78922116778188   -1.84861724713055
O           2.43737568170300   -1.27091340547151    0.06398703851997
H           3.17086311043208   -1.74814674097861   -0.32599915231707
H           1.62488344109867   -1.62717162196428   -0.34206503587506
O          -1.64749737932033   -2.10245876408730    0.63657729582371
H          -0.53982578410286   -2.09906778926489   -0.52603676618751
H          -1.51007503729119   -2.72003905172016    1.35763077010852
H          -1.49073856141043   -1.20824739074616    1.03673215219209
O          -0.11195110554685    0.54479937595067   -2.00527640437052
H           1.01806667601107    1.07694808249430   -1.09987226878391
H          -0.07977932935466   -0.41855419125927   -1.86234872728635
H          -0.85391338300476    0.86356704898323   -1.43782762233333
N           1.65519667839928    1.32627023370851   -0.26599704237283
H           0.99460304538972    1.75222965237403    0.46795505750027
H           2.37733346243107    1.99034298606268   -0.52216635159189
H           2.06566001820189    0.43840711204422    0.07423296070034
