    23
        -45.36695722  Gyration_radius:  2.4539603418 Dipole_moment: 5.344
 S           1.40430663035167   -0.40815154986421    1.70869343875775
O           0.68607722370435   -1.65599816774467    1.98093447048601
O           2.13444344373195   -0.47858697705156    0.45492681598246
O           0.55121212514617    0.75088882156214    1.81757653159075
O           2.50307852819096   -0.27636881093326    2.85081149416486
H           3.10837970781453   -0.97408941151549    2.61994715050134
O          -0.66416526944544    1.45734594262830   -1.83682679184091
H          -0.57525993826273    2.01219661576100   -2.61304520799641
O          -2.68748309919501    0.11047698817079   -0.56898237210549
H          -1.99859221074937    0.66035980033451   -0.98736106685737
H          -3.44358770333887    0.12350233455295   -1.15714114759540
O           0.73187463554399   -0.92588012154262   -1.71379956735023
H           0.31520993913630   -0.06157737378394   -1.88363130245429
H           1.39932382990308   -0.75441524100091   -1.00716968312460
H          -0.28570020395854   -1.63851521315945   -0.79900200664301
O           0.57237425133059    2.68323220820290    0.10039637603345
H           0.67731047375125    1.93499201708591    0.74335756143670
H          -0.17829363091499    1.93051062648431   -1.10302528488143
H           0.06446510136645    3.34393916512758    0.57547669939065
N          -0.94716517243554   -1.91570309587203    0.00657481546724
H          -1.29925092897242   -2.86099060771311   -0.09621484478425
H          -1.71983169778662   -1.22607827064172    0.01148111530873
H          -0.34872605491687   -1.83108966907534    0.89602279652660
