    23
        -45.37705650  Gyration_radius:  2.29119457244 Dipole_moment: 4.665
 S          -0.86633492310585   -1.47056730539433   -0.29584699492357
O          -0.79130890205295   -0.78510060324581    0.99355489128762
O          -1.12511179399263   -0.50723053405730   -1.37235340950912
O           0.26857507021709   -2.30174512326417   -0.57602620913174
O          -2.15324004767812   -2.38498430891500   -0.19095196955312
H          -2.63131645571043   -1.98205560946720    0.52707441251592
O           1.59768705042765   -0.52987119036209    2.23236501622070
H           0.71795881917809   -0.78391349926116    1.89593110797672
O          -2.30550311077581    1.80187135199660   -0.74062335056705
H          -1.94962294517550    0.92512578055200   -0.99471409468823
H          -3.03176091904307    1.98185672427793   -1.33814106712574
O           2.58047852211493   -1.02867845242351   -0.21393486560218
H           1.90699015471198   -1.70836560241284   -0.41938821529638
H           1.83490885444973    0.17167702750333   -0.79490352084411
H           2.49826851125483   -0.90450032770435    0.75495918947956
O          -0.19064214494330    1.82317713290817    0.98627164060812
H          -0.97081789323131    2.21688138809253    0.56955067334631
H          -0.46693390332625    0.89803891844922    1.15575933442052
H           1.51129796610411    0.37994384846481    2.52657649449729
N           1.09848046516154    0.89628376197271   -1.12269985442525
H           0.26481570599677    0.34645464723567   -1.44534571591779
H           1.45617865874697    1.50183425802702   -1.85347757513486
H           0.74695326298974    1.44386768900791   -0.28363590055741
