    23
        -45.36695725  Gyration_radius:  2.45408539731 Dipole_moment: 5.344
 S           0.98546338042124   -1.80147763574626   -0.91795944477874
O           1.29536419144765   -1.74850288335592    0.50017762619909
O          -0.33781465641591   -2.38426819124161   -1.15541285613092
O           1.15895544087466   -0.53932969711998   -1.59609055572787
O           2.03179504257712   -2.81281566113423   -1.55943174602524
H           1.97196327382992   -3.55651712042532   -0.96801435613858
O           0.24053828003606    2.17245465284705    1.07679159202371
H           0.57080527362115    2.83570831033302    1.68450416954254
O          -1.96220534299662    1.85377053912599   -0.52378543752397
H          -2.58544257388121    2.53972612144027   -0.28119261288915
H          -1.14902156634126    2.02135180202725   -0.01130360402373
O          -0.32623508317990   -0.36257203477414    2.02345471803688
H          -0.07305067547322    0.55757617066346    1.82680542340373
H          -1.41866944386196   -0.66317069820309    0.97634273793362
H           0.37271963664881   -0.91664786748836    1.60081900368045
O           2.23202359571443    1.52694926175051   -0.47296623623296
H           1.01335890181745    1.92387160396738    0.49418578031742
H           1.89567962505116    0.67111098479774   -0.84547870370232
H           2.37166452133910    2.08820887052694   -1.23828455923668
N          -1.97484028835780   -0.81439852071931    0.06467403995796
H          -2.87972768771615   -1.23888828757093    0.23526149200689
H          -1.35893549114207   -1.46589188157986   -0.52918217975887
H          -2.07438835400755    0.11375218187443   -0.38391428093045
