    23
        -45.37061392  Gyration_radius:  2.45296362953 Dipole_moment: 4.903
 S          -2.17960147826474    0.03280561204627    0.83394032832130
O          -1.61862579499106    1.05371101014084   -0.06706078369242
O          -2.90818664968653   -0.99759668508186    0.12790874373190
O          -1.17065013775020   -0.44567040456807    1.74893488053412
O          -3.27491750094788    0.79630546798930    1.70937263534449
H          -4.08702329327979    0.50150981676676    1.30899986987931
O           1.42839127141423   -1.60392157772902   -0.91141667289341
H           1.64707790540879   -2.46316463796255   -1.27498069951710
O           2.37307472775535    0.83677925621014   -1.63225121308318
H           2.07297832042821   -0.08431516114551   -1.48270883125317
H           3.33033511801118    0.82055396858072   -1.59104915988184
O           1.44829344195315   -0.62093837978197    1.68984840328164
H           1.17314710938959    0.79896979151855    1.08608245768056
H           0.50221000272775   -0.72334075286979    1.92497623662204
H           1.55991911271131   -1.14970545609106    0.88186675401928
O          -1.00883205458360   -1.05997825671906   -1.67334709578596
H          -1.74662336544908   -1.29339838994485   -1.07186817313943
H          -1.06168127771610   -0.09705693241908   -1.70071921277269
H           0.47791335249663   -1.43855596743967   -1.16681566232624
N           0.85334789366337    1.61911022892412    0.47244323600316
H           0.97283421697117    2.51243716694197    0.93557908735469
H          -0.18478762802065    1.44317860952987    0.26211557010621
H           1.40140670776151    1.56228168309367   -0.40985069854213
