    23
        -45.37061388  Gyration_radius:  2.45309846235 Dipole_moment: 4.903
 S          -2.09446185915826   -0.74236765212437   -0.71431148758634
O          -0.83480476125632   -0.98818522511114   -1.43655193391161
O          -2.46343508887559   -1.83677653187878    0.15583938832857
O          -2.07554164817108    0.55903149267968   -0.09000688948855
O          -3.22663682395646   -0.70073867009772   -1.83934676380656
H          -3.64174575589163   -1.55088447270849   -1.73155829888478
O           1.16080603634714    0.06774908967707    2.02238979106953
H           1.30872425579718   -0.14781579569207    2.94432083232129
O           2.98161317727579    0.33114176848964    0.02667647624884
H           2.41271315335730    0.17355787898021    0.80924879816899
H           3.64124922218457    0.97232232477614    0.29519382519706
O          -0.19238906923720    2.16230992370095    0.79147985073449
H           0.25046410317774    1.56686195474200    1.41933130517654
H           0.38622273093677    1.64813684492220   -0.57161881637014
H          -1.05409471431402    1.73300869425199    0.60735893624122
O           0.03041789688550   -2.01805882691728    0.93228853806215
H          -0.94829532211902   -2.04543147303737    0.88799340746460
H           0.27842915597263   -1.98893939648951    0.00044837205183
H           0.68075982168487   -0.71771633265873    1.63702500033770
N           0.77151860878620    1.04581472170865   -1.37163816671508
H           0.10407668715024    0.20932602812214   -1.45930023933511
H           1.70923291504616    0.71258192249780   -1.06864600751865
H           0.81517728837761    1.55507173216756   -2.24661591778868
