    23
        -45.37061379  Gyration_radius:  2.45309112866 Dipole_moment: 4.901
 S          -1.34303266667423    0.37954454034274   -1.87077141148825
O          -0.44900636811507    0.72294123856434   -2.95421758828851
O          -1.06528651140951   -0.95042959504641   -1.30249513327251
O          -1.44646438236645    1.36728644217840   -0.82315389425014
O          -2.78762214708719    0.26052429182469   -2.54038217841577
H          -2.57030312486029    0.20153761519606   -3.46557211294880
O           2.05931903667805    0.77167983759056    0.77604713776305
H           2.89521631527684    1.23449654574166    0.70272711036743
O           1.51041595241796   -1.54277040811208    2.08302817293590
H           1.78825359305027   -1.45333533002479    2.99578166430904
H           1.82848192072225   -0.74164439014122    1.61610152201865
O           1.55261811438356   -0.24675406988775   -1.57351699061407
H           0.99494587117650    0.27113538244538   -2.19130077576619
H           1.85694107098796    0.43633927537167   -0.14197480641963
H           1.00744638462540   -1.02484968686566   -1.40618837682313
O          -0.46362433245630    1.60066412483637    1.60078854170397
H          -0.88530883558642    1.77920425255560    0.73418936831212
H          -0.90573823918000    0.09788448007969    1.53709348498437
H           0.48500036137332    1.52496148560748    1.40239015032920
N          -1.01092705395482   -0.94075611384317    1.28940773743768
H          -1.08083533819490   -0.98335654889514    0.21877143048123
H          -1.83388562891506   -1.35320216369070    1.71301816302588
H          -0.13660399188915   -1.41110117582368    1.60022877461035
