    23
        -45.37705623  Gyration_radius:  2.29118745808 Dipole_moment: 4.684
 S          -1.19024807461987   -1.24178869842669   -0.20176825234917
O          -0.65330066722219   -0.78701963851998    1.08005664599237
O          -1.51012066673461   -0.09303450857412   -1.05736386378075
O          -0.35792122710570   -2.19925469962915   -0.87080838757351
O          -2.56789222540523   -1.93036004323068    0.16041379370598
H          -2.75964210707760   -1.56284198087535    1.01753068921892
O           1.96787669946271   -1.13465074808624    1.63738769795046
H           0.99923737931444   -1.17996237044625    1.53030875328908
O          -2.00914825567061    2.24822853159202    0.12283890749692
H          -1.91025921464815    1.37660897113582   -0.31345000915729
H          -2.80617214934082    2.64023256475641   -0.23475951162473
O           2.17781159560669   -1.39776001496392   -1.02452282325876
H           1.57189463907569   -0.01299554017244   -1.24581699645140
H           2.36967284049058   -1.41621996471556   -0.06340901925308
H           1.35093190558130   -1.91482111986109   -1.10711391481449
O           0.43480301261107    1.65606430503243    1.18801288650908
H          -0.33104997410273    2.23135680111023    1.04702275539282
H           0.03202282894386    0.77349172854878    1.32802154789031
H           2.14585625181620   -0.28210769518425    2.04139269675117
N           0.94005451863378    0.86706258944949   -1.28000488872821
H          -0.04133768714392    0.52109495403118   -1.41710818222671
H           1.21883738091104    1.51018960635093   -2.01302637698520
H           0.92809317664142    1.32848697070066   -0.32383414798342
