    23
        -45.37061386  Gyration_radius:  2.45309967584 Dipole_moment: 4.895
 S           0.79847998708188    0.86939240303197    2.01346325169748
O           1.47808066759804    2.10266646834059    1.68432609781133
O          -0.61763239307962    0.87368792307377    1.60903720234769
O           1.45284698977387   -0.33334160204912    1.55635280181311
O           0.78305673356908    0.81161131909732    3.60895488265480
H           0.99439288147892    1.71102239480935    3.83938923440183
O           0.64808978344019    0.07530649915121   -2.23839025940621
H           1.16121148967307    0.39448675929553   -2.98210959768068
O          -1.96333792378424   -0.66054107485756   -2.17047754319019
H          -2.11077991162127   -1.33181449758801   -2.83829370100742
H          -1.04789245474398   -0.33506985860063   -2.30105376291617
O           1.07136139915149   -2.00011811773286   -0.43678188153675
H          -0.37971291659552   -1.74321895330120    0.09819941095713
H           1.10835049220177   -1.37767390664009   -1.18255735140496
H           1.45533210596371   -1.50684755760395    0.31814408434217
O           0.28362736171448    2.11032029334663   -0.64496922488370
H           0.56520532287564    0.85180459983802   -1.61665564466079
H          -0.54067301091441    1.92903450890463   -0.17775756051470
H           0.91803954625572    2.23880564570343    0.09119764358547
N          -1.31513749433779   -1.30133540002528    0.38267318774375
H          -1.87501257383663   -1.92522477229230    0.95201299427938
H          -1.80092496771138   -1.03876971215650   -0.49899748691293
H          -1.06697111413588   -0.41418336173277    0.93429323248194
