    23
        -45.37061365  Gyration_radius:  2.45302314602 Dipole_moment: 4.898
 S          -0.85863172924680   -1.90307784101358    1.04282674853904
O           0.55809592766788   -1.50248632495859    1.07973506527322
O          -1.60098102422616   -1.44064091960120    2.19433537275119
O          -1.44389495401929   -1.57887686347241   -0.23628933846974
O          -0.85173772471864   -3.49549607301259    1.15922733576914
H          -1.10830508547758   -3.62659212087380    2.06672478451127
O          -0.63467264732147    2.23396909654370   -0.20767064684104
H          -1.15883427824842    3.00920670613227   -0.00142436797574
O           2.01148666837931    2.08100132942651   -0.79023021846137
H           2.19798147856945    2.66869610506195   -1.52384960941093
H           1.08107287065174    2.24804932448067   -0.53041135300650
O          -0.95824045306978    0.21468201680756   -2.09178968036763
H          -1.37434254778699   -0.47987675959797   -1.53952269851645
H          -1.02282662793096    1.02500071265580   -1.55872182825299
H           0.47239152530139   -0.29166361247370   -1.69803825279127
O          -0.39399636736968    0.87512345844068    2.00807216856363
H           0.43582859005912    0.39023531709575    1.92521554334835
H          -0.59912174560427    1.70180789685924    0.63605677450509
H          -1.03930618923976    0.15835701833324    2.18279043385031
N           1.38046934967577   -0.52676466988614   -1.17716678615396
H           1.96879150582456   -1.16289165215760   -1.70258253146436
H           1.08080146272431   -0.97578807315414   -0.24910695941977
H           1.85797200540829    0.37802593835462   -0.98817997599024
