    23
        -45.37061380  Gyration_radius:  2.45305840303 Dipole_moment: 4.902
 S          -2.27430648912441   -0.51993539644574    0.06788876734251
O          -1.69045110567346    0.55153970886344   -0.75674432273725
O          -2.43281492363325   -1.76075953030574   -0.65761655766115
O          -1.57574989102151   -0.62930138881704    1.32635734868371
O          -3.75885452246923   -0.03635791644762    0.40178052276998
H          -4.27702920058029   -0.57223605867157   -0.19067943839510
O           1.99583777590593   -1.19934636048383   -0.12823653198380
H           2.52758216318314   -1.98603059243342   -0.25732901387172
O           2.52666224083059    1.35221548751022   -0.88689532977730
H           2.42114567450219    0.39645714468303   -0.69638143163294
H           3.37983801924979    1.60714950756002   -0.53275187266339
O           0.85660541043907   -0.07374487644009    2.14508131962133
H           1.36918578482460   -0.60508013603163    1.51271754065795
H           0.48400726596337    1.16765501860008    1.26319076153562
H          -0.05804945682441   -0.41911586801697    2.07591925863491
O          -0.06436477432311   -1.41235097894608   -1.71720043863133
H           1.18869292774574   -1.32399372198746   -0.70197348207520
H          -0.88906489859178   -1.79919923553964   -1.35522377307366
H          -0.33141323024266   -0.50724533070069   -1.91746011860052
N           0.21780832086726    1.82101253730800    0.45482784328103
H          -0.05179005996868    2.74189187223828    0.78059076808216
H          -0.60385146396479    1.34771805015683   -0.04903474897703
H           1.04037440290410    1.85905806435169   -0.18082708052439
