    23
        -45.37061395  Gyration_radius:  2.45312618036 Dipole_moment: 4.903
 S           1.94106309156788    0.62711645541473   -1.13497542922366
O           3.01595202105644   -0.16858503922534   -0.58494749650589
O           0.86515247042251   -0.19262933839083   -1.71740936383895
O           1.39450032066195    1.62142604135981   -0.24246843549976
O           2.58795253045100    1.41326975577949   -2.36488041963235
H           3.39734218917199    0.93068966466437   -2.50199224938316
O          -0.51800165342525   -0.81149888666771    2.12471066417245
H          -0.31189893438377   -1.17279815411982    2.98800707292367
O          -2.61563275565511   -1.38186255007253    0.49940229772565
H          -1.88403774535082   -1.28325064415285    1.14436118967621
H          -3.42882842219956   -1.24963769495145    0.98882956270829
O           1.24151536423638   -1.78537293933815    0.46013832203356
H           0.19513019473995   -1.15118111953535    1.51467402762503
H           0.80566479689696   -1.79493839298887   -0.40049152452613
H           2.04964270770325   -1.26089189552586    0.27993024730299
O          -0.78223010692062    1.80262430593390    1.21454519782439
H          -0.69012207728161    0.99615831577418    1.74943372268590
H           0.10624822734203    1.94594338368641    0.82615310555252
H          -1.30856090257635    1.20952104896169   -0.13750335398354
N          -1.49823255609861    0.58796873873473   -0.99127939840594
H          -2.00329208511385    1.08075303014231   -1.71852312290773
H          -2.02428807120699   -0.24030570632870   -0.64571627954591
H          -0.53503860403272    0.27748162083473   -1.34999834677880
