    23
        -45.37092325  Gyration_radius:  2.38115980189 Dipole_moment: 5.401
 S          -1.29063231913879   -0.34491622971892   -1.37642174657034
O          -0.76468559230043    0.54502242506402   -2.37926150899781
O          -0.56798570792124   -1.61202458527338   -1.30001447660369
O          -1.42174533612554    0.25282731733026   -0.05302206118066
O          -2.76939211770396   -0.69555491840095   -1.83602269170440
H          -2.69771427978580   -0.58538002790235   -2.77814703698827
O           2.63845581255075    0.10905291719302    0.40328616284757
H           3.44413285579156   -0.07913713706777   -0.08023623912919
O          -0.50736944946515    2.69078539463276    0.59797180130802
H          -0.21843243944220    2.55250048705251    1.50149783733931
H          -0.96446017012669    1.87076812245307    0.32485913389259
O           1.31933583218387    1.69655043078252   -1.16404011399748
H           0.64816549403882    1.27240206447351   -1.73350953160765
H           0.80163231623326    2.30181869796153   -0.60127729006466
H           2.12807653989425    0.74816536160855   -0.17975320906440
O          -1.20700921689364   -0.93964782402130    2.27133898676401
H          -1.44093273140640   -0.51993700802424    1.41000250067902
H           0.21522967670493   -1.54625413245844    1.58484350875935
H          -1.39571509830304   -0.28838360506233    2.94837101001439
N           0.87274522900937   -1.81397911186327    0.82323745219095
H           1.25895308765870   -2.73804560751913    0.98094071754845
H           1.63145730856884   -1.08243541709684    0.71575821406203
H           0.28789031597494   -1.79419762415993   -0.08040141947783
