    23
        -45.37890731  Gyration_radius:  2.28801638046 Dipole_moment: 2.624
 S          -1.55797638070382   -0.58005709798544    0.07712474166980
O          -1.49326987023735   -1.32387078300074    1.31146883433511
O          -1.11938480390153    0.79944358860644    0.19414951593930
O          -0.85781564332993   -1.25601602549148   -1.01886036806660
O          -3.08803470273455   -0.53790771729549   -0.33459591641284
H          -3.44395487799454   -1.24668237892312    0.19117996003034
O           0.37218643469252    1.66179505582256    2.26515250929654
H          -0.32371524709829    1.42440222124141    1.62375109026202
O          -0.18309869101668    0.41281633083718   -3.01202332749303
H          -0.97692162135474    0.79888220163072   -3.38447642575025
H          -0.48571228904122   -0.25307614422269   -2.36189620732096
O           0.95483998437777   -0.96200568263676    2.30762113863459
H           0.03285741400054   -1.23893663924155    2.12655693284004
H           1.50402366015581   -0.96257496491938    0.87205975859599
H           0.87451342749826   -0.01551138327034    2.54663461148066
O           1.16749553972652    1.57060910568226   -0.97343518734505
H           0.94160817383190    2.28989221406114    1.81523187574465
H           0.92876407823678    1.38507354908685   -1.90032563092614
H           0.30671931153541    1.50590589112561   -0.51330016451888
N           1.62582354142778   -0.90296307033700   -0.19984324951658
H           1.67925377893101    0.11858814767878   -0.49396505283676
H           0.72254987379176   -1.24704936382941   -0.60724342174572
H           2.41924889932334   -1.44075707466042   -0.53096603696177
