    23
        -45.37061497  Gyration_radius:  2.45309102346 Dipole_moment: 4.858
 S          -1.54122679049581   -0.45586540682488    1.69133654170935
O          -0.45701936904308   -1.36605275660087    1.28612919515093
O          -1.18137300991475    0.38160628432359    2.81394405110247
O          -2.06699687050329    0.24769815912156    0.54531096806955
O          -2.70853188543872   -1.40183018335422    2.23201069049624
H          -2.65371125283262   -1.26293830035816    3.17244435917929
O           1.28778390216923    1.82998874169346   -0.65378886791276
H           1.67060337566677    2.70233592796940   -0.55006064136196
O           2.39302923141979   -0.38256608295724   -1.77140571891449
H           2.11011637521142    0.46002656991825   -1.35780758073415
H           2.68305985587807   -0.16547890365313   -2.65855720385659
O          -1.09859871649320    0.96201772839719   -1.78789389542557
H          -1.65488596981886    0.87326421428403   -0.98562944107478
H          -0.32575356574892    1.47454765489176   -1.49647770051286
H          -0.57082429383152   -0.50369058785237   -1.61735055462147
O           1.17026683391156    0.77003373523451    1.72902894905381
H           0.33956722428738    0.87043498518085    2.23916756986113
H           1.21145373680641   -0.18375548607052    1.58877204613144
H           1.20185100460666    1.46317658861629    0.27047747719516
N          -0.07398228776892   -1.39240033561330   -1.27829624422392
H          -0.42855693674620   -2.22581810552106   -1.73271999078299
H          -0.24732692269111   -1.44158250449534   -0.22003057034726
H           0.94105633137588   -1.25315191631870   -1.45860344817677
