    23
        -45.37061493  Gyration_radius:  2.45298972611 Dipole_moment: 4.862
 S          -1.43085708918954   -1.76063081123981   -0.54331275704484
O          -2.43245297571344   -1.81619925034762    0.49823544117701
O          -1.40315651562794   -0.46473790805869   -1.24175813489028
O          -0.10024207450411   -2.14510753071988   -0.13531944532665
O          -1.90622461836507   -2.82151216384412   -1.63810208153441
H          -2.79962061059770   -3.00124478576690   -1.36218580849017
O           0.72241009032506    1.03706019335429    1.95891099924088
H           0.70853295375331    1.21858348550732    2.89973846026765
O           1.19924840941216    2.75005144776418   -0.09186421945056
H           2.04146545926760    3.18164396580559    0.05894466261086
H           1.00345802710678    2.23276890253907    0.71749323126864
O           2.10330502721321   -0.84100560574094    0.44277540697199
H           1.41491826608681   -1.53230437545065    0.34639631902256
H           1.57809814119501   -0.10085416077451   -0.83451777808563
H           1.77104150478293   -0.25881923844833    1.14676588221577
O          -1.74878775702137    0.60098771556748    1.23867571570490
H          -2.07002974253999   -0.32473443995104    1.22364385253965
H          -0.22060717308093    0.82096374947799    1.71360343935645
H          -1.79266466621200    0.84907171236828    0.30722079499790
N           0.99882999240718    0.46595527302643   -1.53806027498982
H           1.01008146477531    1.45201272461092   -1.20671023602712
H          -0.00036627877352    0.07826555159707   -1.47727634687920
H           1.35362014533013    0.37978552870796   -2.48329715265159
