    23
        -45.37061507  Gyration_radius:  2.45304518011 Dipole_moment: 4.853
 S           0.29700559225605   -2.29630552736333   -0.28451310980402
O           0.95317048995176   -1.26420724175937   -1.10433022246052
O           1.11860467851883   -2.74492049422938    0.81762847095886
O          -1.03899577846195   -1.88358544517257    0.07552846457815
O           0.14974685997268   -3.56672980415154   -1.24065467405189
H           0.81247629691686   -4.15368907773821   -0.89023350520801
O          -0.07390410751422    1.47581053411793    1.80233926786151
H           0.03154502898978    1.72906956819642    2.72049666684257
O           0.41885212824411    2.94147728558666   -0.42850681951831
H          -0.07246047993737    3.76216713805678   -0.37058619321634
H           0.31390076269016    2.49338874656005    0.43703245947142
O           1.80422731853917   -0.25995769092046    1.27834667883586
H           1.97317934924016   -0.17854254813430    0.33189223618590
H           0.61696099654547    0.77482970613626    1.63638742324755
H           1.59188198292085   -1.21214824200850    1.37156477922731
O          -2.23266548757780    0.43265931537635    0.39387456326916
H          -1.64494688148882    0.83199044339260    1.05729218726215
H          -1.39632480472530    0.64101314523952   -0.91471507551867
H          -2.00850605951037   -0.52164684887924    0.40565089219998
N          -0.60540362361092    0.73951605269928   -1.63339035574916
H          -0.95215636108231    0.74357185002678   -2.58551707798064
H           0.04272001354261   -0.10145690566427   -1.47543218217592
H          -0.09890792442072    1.61769602062502   -1.40015488425188
