    23
        -45.37061514  Gyration_radius:  2.45307592174 Dipole_moment: 4.852
 S          -1.91585314187407   -0.62249004621569   -1.17619732293560
O          -3.00681340494234    0.15021810318478   -0.62492260567999
O          -0.83855057300549    0.21827088440749   -1.72416269268848
O          -1.37355357133606   -1.63087788885866   -0.29637248637356
O          -2.53783450587322   -1.38661770378801   -2.43288546776445
H          -3.37125991446977   -0.93905166389125   -2.54093745164611
O           0.47851005854377    0.78316146308410    2.14200056949853
H           0.25862000241172    1.12887248072221    3.00826428368347
O           2.59941492020833    1.39266891054035    0.56174212355057
H           3.40428582319485    1.25340880141600    1.06286831026107
H           1.85698756565007    1.27956707898427    1.19181946899777
O           0.77891228392831   -1.81416060174354    1.19521345190072
H           0.67077191058343   -1.01678040182120    1.74062335223719
H          -0.10162967006376   -1.95885177101288    0.78931802660713
H           1.32236554156098   -1.19614349160405   -0.13836166135753
O          -1.26617965889961    1.77132326245664    0.47044809236931
H          -2.06654077013746    1.24172932592593    0.27188108226372
H          -0.22867680571497    1.12826867062913    1.52794597657767
H          -0.81847680505984    1.79579664868785   -0.38386593402276
N           1.52035528477791   -0.55920947289936   -0.97905058887680
H           2.03541196689527    0.26682055302394   -0.61209635623771
H           0.56054237725228   -0.24933026410172   -1.34640032365505
H           2.03919108637780   -1.03659286712809   -1.70687187671957
