    23
        -45.37092278  Gyration_radius:  2.38109639936 Dipole_moment: 5.387
 S          -0.99614339144524   -1.15160355999835    1.16392586921917
O          -2.24398888626835   -1.14372901779457    0.44485180018804
O          -0.01058716220168   -2.06473054044382    0.59099662610929
O          -0.41404532504938    0.16940782438700    1.36978037905359
O          -1.33261045682723   -1.70226883316282    2.61464822603752
H          -2.10481993635612   -2.22757279004005    2.43410561818857
O           0.62760152198270    0.32304610529486   -2.57523655479222
H           0.50967907575990   -0.14296869161203   -3.40420485458843
O          -1.38233908121206    2.42458612375462    0.28344175798397
H          -0.57802518808251    2.91757172812120    0.11313386176075
H          -1.11854926717603    1.63113758678820    0.79025817299933
O           2.12704481545120    0.79191227845244    1.53549165866515
H           1.17656118489381    0.54626403708735    1.62969829676207
H           2.22018141247068   -0.12987738917504    0.12080564653936
H           2.18235262047303    1.73043402355229    1.72028652229567
O          -1.77044570535604    0.50091737785609   -1.60844864696069
H          -1.82282060383675    1.33196557950934   -1.10086491715149
H          -0.29862181537104    0.42621602145430   -2.20075101684178
H          -2.02105694833689   -0.18660589738299   -0.96109312259134
N           1.92321632135648   -0.83726828380135   -0.58333552602953
H           1.14763878703958   -1.40998776578482   -0.10447563228201
H           2.69713537111105   -1.43473557333554   -0.85159027575726
H           1.48264263692341   -0.36211033368195   -1.42142387880617
