    23
        -45.37092346  Gyration_radius:  2.38150949462 Dipole_moment: 5.382
 S          -0.86433116806181    1.64188992241077    0.47314960063766
O          -1.67649775802537    1.14308081315166    1.55287495456456
O           0.51923839085624    1.89486095262027    0.86696321008139
O          -0.91430869969209    0.83245958461255   -0.73866692902909
O          -1.48473630754587    3.04799241971592    0.07435061264429
H          -1.88932087887177    3.30721426255057    0.89530424885754
O           1.36508996095448   -2.02736762859518    1.08301232221621
H           1.73090536414423   -2.26742606658848    1.93564342058086
O          -2.17811978815137   -1.52879253631498   -0.90882784597403
H          -1.61826482096699   -2.00575558728691   -1.52359037714889
H          -1.84431814948152   -0.61005095099822   -0.88547193521671
O          -1.11266818109855   -1.46952294907618    1.60019639092917
H           0.39520655423229   -1.83660760672787    1.26051968983058
H          -1.31636148534713   -0.52398595804165    1.73823994102822
H          -1.64362526509324   -1.71203468474510    0.81910554729998
O           0.98728546420434    0.48357024179093   -2.50887953836923
H           0.22400570800275    0.73168457245662   -1.93558492612934
H           1.91363003416358    0.16394332412882   -1.13170872849739
H           0.63210777926543   -0.06968469276675   -3.20590727707733
N           2.16923684729182    0.18463046405581   -0.12226403148714
H           1.53379738462422    0.93351110111378    0.31815021090038
H           3.14644903897429    0.42351363149277    0.00383120627691
H           1.92559999559347   -0.73712260895233    0.33956023307879
