    23
        -45.37061496  Gyration_radius:  2.45305602585 Dipole_moment: 4.858
 S          -0.35885987794867   -1.98832501701630    1.16646687756171
O          -0.23900205288971   -0.66367116961854    1.79802327505616
O          -1.73135796859299   -2.37102548495498    0.91948810168363
O           0.51959888208761   -2.08665589916563    0.02476633285103
O           0.17538483165043   -3.02682771597320    2.25545040911834
H          -0.63285412382505   -3.43594601749984    2.54897146948346
O          -0.84650903264308    0.99372627149252   -1.93153224286588
H          -1.45494523170806    1.07990762951610   -2.66682566592836
O           0.31544601205439    2.95075888996546   -0.45228354746741
H           0.77225708779271    3.55110010991715   -1.04327638859813
H          -0.18731026468005    2.33044172344212   -1.02091758202550
O          -2.22308253664011    0.06082426385496    0.08102001362198
H          -1.37712424213056    0.58690825581459   -1.19050948306484
H          -2.23854553154463   -0.90891407209776    0.22148869874897
H          -1.76879583127327    0.37609284581146    0.87174717075149
O           1.56490292381756   -0.36385719216428   -1.65768170598194
H           1.25743323024411   -1.18490054277032   -1.21912889164336
H           0.75355863261899    0.05804344735996   -1.98733824842368
H           1.73253307538884    0.34642842407690   -0.27106459671149
N           1.56329099583567    0.82429195741417    0.67485174302566
H           0.85038531887362    0.21051192787956    1.19200017793681
H           1.13913686449924    1.75143107013890    0.46827132060662
H           2.41445882900818    0.90965631458009    1.21801277225140
