    23
        -45.37092427  Gyration_radius:  2.38090976113 Dipole_moment: 5.423
 S           1.74730294093398    0.56095487613369    0.54432553793302
O           1.40921176475531    1.09172241277451    1.83962465847262
O           1.87321596556640   -0.89434216448888    0.53731103997920
O           0.87392488489253    1.00736236751927   -0.53445562746839
O           3.18461679227476    1.13936609023671    0.19624057252522
H           3.54716524727164    1.26375329645959    1.06692510401137
O          -2.09409240894333   -1.42746300934555    0.84473724539111
H          -2.32615866018125   -1.99109578431809    1.58423856278726
O          -1.34733637815882    2.46630865707316   -0.15624009071637
H          -0.46910636517656    2.06246977983263   -0.30350148460041
H          -1.91854942264922    2.13507572329647   -0.85126286487346
O          -1.23964350494850    0.75104358012504    1.96077182039904
H          -1.78776981528375   -0.56619188754127    1.26012717872220
H          -0.27167958741847    0.83059517835027    2.06590071797277
H          -1.47429139986712    1.49570460403576    1.37662884225501
O           0.22926287538401   -0.29964559149442   -2.71282001656743
H          -0.32815777571271    0.27667077909043   -3.23742898774328
H           0.58784658533111    0.25403198865985   -1.97941061291196
H          -0.10308370644360   -1.53701350518671   -1.61112362740965
N          -0.05170210879351   -2.05979257177868   -0.71171008301238
H           0.78297503114578   -1.63449797268018   -0.18119982584603
H           0.09114988852194   -3.05083275196264   -0.87072083638152
H          -0.91510083250255   -1.87418411475681   -0.12695720293936
