    23
        -45.38252856  Gyration_radius:  2.27571860459 Dipole_moment: 2.952
 S          -1.07030253601122   -1.58031536362546    0.04811373783385
O          -1.33706516796061   -0.65914906102213   -1.05292055989737
O           0.02789451586997   -2.48185322803473   -0.27341537950208
O          -0.90467375146487   -0.90499825208420    1.31608388654470
O          -2.36187571135271   -2.48552430755113    0.19401112042269
H          -2.36313315669507   -2.99579496225257   -0.61003681600753
O           0.23788127080322    2.49518758293284    0.24170027512246
H           0.17504661488934    3.44671830103212    0.33122841337533
O           0.73258787776623    0.82175961711733   -1.89664062823862
H          -0.08681772328060    0.29700717123085   -1.78755590128380
H           0.63081311377792    1.56987730494464   -1.28118437893269
O           1.35804255339606    0.46944681281036    1.74802131022134
H           0.53560301849102   -0.05559855651141    1.81698988128454
H           1.99087260459266   -0.34728702795139    0.53666124505902
H           1.08083468880064    1.31370079832120    1.34928983725935
O          -2.10659217212230    1.34394849228931    0.49360871918220
H          -2.03629790365227    0.74630822430987   -0.27478300221743
H          -1.93649658277789    0.74152876210769    1.23213530883591
H          -0.68873244486601    2.14103046741393    0.35086915406328
N           2.06410755042444   -0.85781863192504   -0.39619681245446
H           1.34974722630457   -1.63974995672504   -0.36257327334112
H           2.99815480181247   -1.20177496411523   -0.58698669281376
H           1.71040132326566   -0.17664921270651   -1.13641945451494
