    23
        -45.38252848  Gyration_radius:  2.27569759522 Dipole_moment: 2.951
 S          -1.66442152643851    0.87021280636949   -0.34228212653736
O          -2.48085846781726   -0.28283576183784    0.01267308696595
O          -0.91126626055336    1.35880725229992    0.80924914932688
O          -0.83138515260184    0.64680130951824   -1.50300333801401
O          -2.67300221949470    2.02596412402773   -0.73706211974391
H          -3.27120631000777    2.05644898173627    0.00324938023827
O           2.51731178626994    0.02547610981160    0.05206344495736
H           3.46141434084411    0.18698330031917    0.05555517099968
O           0.66336782460351   -0.42383308188840    2.04672459550245
H           0.07433488043181    0.31329935332567    1.78528029948543
H           1.46434694147335   -0.30401594867725    1.50553699463716
O           0.80777783823433   -1.47659583607738   -1.51262137406810
H           1.56652069857797   -1.06265081055073   -1.06366977177254
H          -0.07698712522950   -2.06407227317935   -0.32647031786604
H           0.21325738889013   -0.73232977165924   -1.73503212019479
O           1.17077383246675    2.18133250709997   -0.59947765957579
H           0.68031196400887    1.86468438896687   -1.37173980196807
H           0.49692332831434    2.12592132109702    0.10438803493301
H           2.08578127166212    0.88802757513490   -0.20433930403158
N          -0.68355340458926   -2.09404293677773    0.54953576150689
H          -0.95082061434496   -3.03517651194990    0.81406932141402
H          -1.52476768419348   -1.48192617168168    0.34814707474337
H          -0.13385333053644   -1.58647993541962    1.30922563906768
