    23
        -45.38252859  Gyration_radius:  2.27574286346 Dipole_moment: 2.951
 S          -0.86376590071958   -1.53224403442613   -0.74240173646653
O          -1.69703765801295   -0.34475134081102   -0.57640645267643
O          -0.13000667705758   -1.48952376382571   -2.00016939080530
O          -0.02095507123151   -1.79035994726386    0.40398331942896
O          -1.85703794602958   -2.76160169595721   -0.84744358726262
H          -2.30491495431980   -2.61075121719275   -1.67417812181176
O           0.33335074096417    1.62703458817811    1.89314586233891
H           0.33119096063815    2.18597814722815    2.67093238866390
O          -0.44451788075697    2.02112400098345   -0.72551431906970
H          -1.06535180003825    1.26429044984203   -0.74652444375721
H          -0.18668871684340    2.10351697842620    0.21020844149864
O           2.10080688502530   -0.20176911062863    0.81620453119601
H           1.64928320691131    0.49735737686208    1.32208044814077
H           1.45524194820230   -0.93544766652257    0.77378298371921
H           1.95304617426896    0.25447204703801   -0.70189318020042
O          -1.47656647662401   -0.26579039315325    2.05830420296550
H          -1.84512551616732   -0.16596104024765    1.16010514244516
H          -0.92507447775174   -1.05559395916970    1.96201779171028
H          -0.37648871122081    0.94082831782880    2.03843077333919
N           1.49523255444545    0.51530578279682   -1.62853393133684
H           2.16548545096808    0.78520492926999   -2.33921118381172
H           0.79025015351816    1.28359548845854   -1.40574072131907
H           0.91964372183713   -0.32491393772512   -1.92117879693137
