    23
        -45.38252856  Gyration_radius:  2.27574979411 Dipole_moment: 2.952
 S          -1.88017743009758    0.16292927439527    0.28958555727451
O          -1.38765171997778    0.63384867957559   -1.00179495519843
O          -2.13261378201322   -1.27161920348467    0.26606619397560
O          -1.04448506609775    0.57956303701538    1.39379932157054
O          -3.28557545724858    0.85918023813668    0.51076038122943
H          -3.83240720841094    0.46664253481646   -0.16283462094330
O           2.27468536034544    1.04460755248974   -0.27620762938926
H           3.06358549337681    1.57403492066281   -0.39753279323444
O           0.80489914949220   -0.57889812561339   -1.95605580948611
H          -0.04233170407655   -0.11027839695779   -1.81019666460589
H           1.47495150733145   -0.01784446396997   -1.52582539524981
O           1.33449254800871   -0.61589082183919    1.72046351245074
H           0.79267878607875   -1.77423086985168    0.77191865582033
H           1.85495035012181   -0.04433444931008    1.12799198449237
H           0.47980881016535   -0.15218262891786    1.82693476185884
O           0.13947446317142    2.54321249755005    0.00755129326312
H           1.51776427307217    1.68727928980693   -0.17620749281001
H          -0.44013987713170    2.05374925680669   -0.60641834742132
H          -0.18229421347234    2.24231726386546    0.86959894920165
N           0.26553302431431   -2.25442228617928   -0.02039022033212
H          -0.75734843583750   -2.01371786082079    0.11618316351629
H           0.42164691562125   -3.25536964332102   -0.05025927400300
H           0.56055422330422   -1.75857579484671   -0.91713057204970
