    23
        -45.38252858  Gyration_radius:  2.27571566346 Dipole_moment: 2.952
 S           1.32989638814065   -1.32032356178357    0.36520195753203
O           0.38811173599715   -1.63848875568606   -0.70430026825310
O           2.43935929546951   -0.51727971251518   -0.13119156385295
O           0.68575999394093   -0.75095489893361    1.52802611077549
O           1.95272133788779   -2.69892494288788    0.83463418088771
H           2.46271973333370   -2.97667141857710    0.07991337759116
O          -2.39815750127511    0.76686320592726    0.04278583805688
H          -3.34375918111437    0.91199845448388    0.08920740811994
O          -0.63177266042924    0.44230214406882   -2.05284084565370
H          -0.28539635168713   -0.41908264040019   -1.74185336116250
H          -1.39284743339734    0.62646089079916   -1.47343761547252
O          -1.74916155928725   -1.64267777631940    0.85406371603132
H          -2.24050754515254   -0.16368957161795    0.36710166342562
H          -1.13991233590382   -1.86139222605796    0.12365876644707
H          -1.13430752551934   -1.43475001020340    1.57236533454009
O          -0.20704536758579    1.77467068533013    1.38853108002423
H           0.73655203332376    1.95338221023856    0.11862960568547
H          -1.08477676854551    1.58646612308977    1.01070773556936
H           0.13950584308381    0.90148977331491    1.66107423835486
N           1.26329073757220    1.71829388336447   -0.77775923063189
H           0.53419737739661    1.34983670071037   -1.46306645509656
H           1.88369565688317    0.89053961398674   -0.54804418147062
H           1.79183410687348    2.50193181964512   -1.14340751144126
