    23
        -45.36949626  Gyration_radius:  2.26671777114 Dipole_moment: 3.782
 S          -1.39801415382803   -0.17748889722838   -0.89756147364320
O          -0.10986063603792    0.33920591405660   -1.31217655577389
O          -1.42099537777972   -1.63361549536836   -0.83889194820647
O          -1.87947530112526    0.42514691721535    0.33468131735015
O          -2.42551068433542    0.22815371192330   -2.03025508806633
H          -3.18506637620879   -0.29486198582366   -1.79572114885408
O          -0.02254089278746   -0.37152343877735    2.08875439821484
H          -0.86295012872402   -0.10011150887302    1.67047157911979
O          -0.94396456884276    2.94382004143679    0.65022293457562
H          -1.37469450774219    2.06980186085144    0.59339845906731
H          -1.22791407480007    3.43145431579269   -0.12376311059739
O           0.50338207430511   -2.33448022158834    0.63113808456803
H          -0.30699847963061   -2.21508644753697    0.02390470072472
H           1.33398733720241   -1.90940124990499    0.03866157915757
H           0.32687358527561   -1.61269261523721    1.37439067631251
O           1.33736773975179    1.42724170011535    0.69518847424437
H           0.88717832558654    1.11243865059498   -0.11165220049297
H           0.83144726697297    2.22160494008789    0.92933352318492
H           0.62310848570871    0.31040279717877    1.77772210614592
N           2.21310521552332   -1.14349618953152   -0.77357498589984
H           2.83510241598599   -1.62341398910968   -1.41007923777686
H           2.74371360751591   -0.48754234275932   -0.21152561135261
H           1.52271912800782   -0.60555644759854   -1.30266648196078
