    23
        -45.38252857  Gyration_radius:  2.27572122814 Dipole_moment: 2.950
 S          -0.18751935563271   -0.25443132862435   -1.88278182366923
O           0.83155557845522    0.72304215006963   -2.24091744684041
O           0.38966391941933   -1.37118815189900   -1.14001129545256
O          -1.33221157845251    0.32851574847390   -1.21863680223334
O          -0.72548865586238   -0.85682419417266   -3.24538181984504
H           0.07037536286068   -1.11862683391978   -3.69805960817519
O          -0.67827253064331   -0.54109428657993    2.36399700064372
H          -1.00942838909010   -0.86695538715376    3.20161696036388
O           1.75639294148906   -0.74626453827788    1.08014699279963
H           1.38966145792199   -1.13642722450491    0.26038810412989
H           1.01230160405979   -0.74734245102057    1.70877965423528
O          -1.75981403130387   -1.81030441681496    0.33774465173931
H          -1.13765476524009   -1.07189089016879    1.65474299002151
H          -2.15491239973323   -1.07334827163844   -0.15007894908086
H          -0.93821010692951   -1.96795096381517   -0.16481437549960
O          -0.91848916480851    1.82879716317450    0.96610280165639
H          -1.25292496190630    1.41466984970102    0.14545476827824
H          -0.91841394189561    1.11101216548730    1.62438616669983
H           0.60125852598379    1.93801055858982    0.50467934235350
N           1.54196335474815    1.66383151369159    0.08486137834167
H           2.23897099640941    2.39533193636584    0.16364841546922
H           1.35083505249232    1.40139381689020   -0.92384453274350
H           1.83036109766162    0.75804403615694    0.56797740681605
