    23
        -45.36949639  Gyration_radius:  2.26712618943 Dipole_moment: 3.752
 S           1.54886457998197   -0.57621177564463   -0.25424182367573
O           1.07899426471634    0.35925810656160    0.74671658885066
O           1.24499295356379   -1.95953695384921    0.09067696011452
O           1.10453128217030   -0.23949635963801   -1.59682759813841
O           3.12729808052169   -0.46702491881563   -0.26013936535804
H           3.36890079178052   -1.22342065846909   -0.78452609970381
O          -1.55042665159357   -0.48174833431612   -1.36349410534247
H          -0.63522776295491   -0.47867765239093   -1.70584647425612
O           0.72342545002019    2.42197835249116   -1.89536842065576
H           1.56238615874724    2.83694275175320   -1.69166343977703
H           0.88943740619467    1.46014411333753   -1.89772465655434
O          -1.12331278021372    1.74379898063847    0.01124548572131
H          -0.80049451937536    2.31103000742563   -0.70696587124857
H          -1.63121379016535    0.39222624855142   -0.90701955079979
H          -0.30297841762600    1.34646468222042    0.36046431618214
O          -1.23184719335177   -2.06983204682546    0.54174802365225
H          -0.22955096210396   -2.18840136266787    0.39285350517967
H          -1.28569967136916   -1.36159974020076    1.38609731663776
H          -1.50885527968288   -1.49261735774687   -0.29182256179243
N          -1.15138546166386   -0.29917910035171    2.32427963106265
H          -1.20859401801031   -0.50511741411549    3.31256212459163
H          -1.78369539107759    0.46089058430924    2.09998698845526
H          -0.20554908850290    0.01012985777182    2.08900901683526
