    23
        -45.37705626  Gyration_radius:  2.29109242683 Dipole_moment: 4.682
 S           1.12788696983268    0.55549356779141    1.19170884493327
O           1.83041007743980    0.23231268850432   -0.05571106762026
O          -0.16326330904553    1.17730704356174    0.90182667875149
O           1.04179401194682   -0.57380236187632    2.07176806503577
O           1.97081956185969    1.69040076047327    1.90199961643389
H           1.51155290434269    2.48119165137221    1.63703073275433
O          -2.44234950072659   -0.20591817926270    1.34675304922820
H          -1.65040831972287    0.36332392384176    1.36735846421862
O           1.19871161189564    1.61416980659212   -2.25018495949162
H           1.99065345228326    1.92148542014382   -2.69220300793844
H           1.49620618663845    1.16049819853968   -1.43438239721678
O          -0.80467596547242   -2.33038354952151    1.29653656131226
H          -0.09084947215237   -1.87659633990024    1.78879194869261
H          -1.58451326582545   -1.75179636168279    1.43081248027395
H          -0.33178229524843   -1.97584406154383   -0.11195114592958
O          -1.26478083879505    0.71215835134010   -1.49272273261962
H          -0.97755911763601    1.01830132515326   -0.60691502276593
H          -0.65815992832307    1.16769692928600   -2.09427349212296
H          -2.91795083344315    0.03829372372529    0.54930785604834
N           0.07900175372449   -1.50576201616847   -0.99816761528800
H           0.30307120980896   -2.18106726559051   -1.72096353375955
H           0.92783375993059   -0.97388988780897   -0.68501724034925
H          -0.59164865329134   -0.75757337698243   -1.34140209258602
