    23
        -45.36949644  Gyration_radius:  2.26676311627 Dipole_moment: 3.780
 S           1.50695280065384    0.70303393560760   -0.16182103805415
O           0.49812852806487    0.46778911337209   -1.17415547714047
O           1.20968524830078    1.86947703515053    0.66012877130362
O           1.78526677575518   -0.47435116882006    0.64415488577250
O           2.84317232738374    1.04696761417976   -0.93621522237419
H           3.39293500589434    1.37567155375907   -0.23254956155642
O          -0.57117846680577   -0.87810034571672    1.84516383453842
H           0.38415328434611   -0.83547858251862    1.64388132510092
O           1.35116385693508   -2.75809274453217   -0.73892073618870
H           1.91161516845815   -2.70978098763363   -1.51428623746442
H           1.58960058395624   -1.99160332837658   -0.18362512967436
O          -1.13691872388602   -1.61663110363161   -0.63606216305558
H          -0.96216235182243   -1.28559125228707    1.03268452441847
H          -0.57970019676120   -0.88359643393914   -0.95993808688122
H          -0.54798431905859   -2.38460115626672   -0.70887092770124
O          -1.11973385659183    1.54504349602595    1.56584081843214
H          -0.17796153897462    1.81908722355484    1.28559645500517
H          -1.67088684463762    1.50368167808376    0.61145548790345
H          -0.98469803256662    0.53487525386633    1.82546006659004
N          -2.14537144602325    1.30356135334564   -0.71675399509190
H          -1.24960021752702    1.18490292071387   -1.19547753618722
H          -2.67821717677822    2.03721835476664   -1.16415522778175
H          -2.64826039830681    0.42651757122582   -0.79153485980824
