    23
        -45.37304147  Gyration_radius:  2.28366595619 Dipole_moment: 3.053
 S          -0.19984505016489   -1.57768208459571   -0.72992586263244
O           1.22810476723822   -1.61858037680226   -0.96153470434402
O          -0.51814684583191   -1.37692095198833    0.68248587987632
O          -0.88908798145169   -0.63589375937801   -1.59301123516547
O          -0.75831520734015   -3.01569860477136   -1.08135794896988
H          -0.38880117380937   -3.15548204653990   -1.94654850286613
O           0.46477618386946    1.59651535906443   -0.89191674135833
H           0.05268369124987    0.84947223758327   -1.35875689891695
O          -2.84874574768550    1.12178001477427   -0.91080832312036
H          -2.24978629822553    0.40307821428199   -1.18887082349408
H          -2.86535827230220    1.74292333351223   -1.64063466766092
O          -1.20516097873750    1.19473925155716    1.25765239452498
H          -1.98090606942679    1.46030049863374    0.73589687339374
H          -1.17128779126006    0.23158570290541    1.11871568306107
H          -0.08948384946620    1.71710574306523   -0.09889370086035
O           2.67473253290617    0.41517639839635   -0.10453455248820
H           2.39427462458931   -0.42504937615791   -0.52839529383938
H           2.05567788829811    1.07131033074749   -0.50761764161024
H           1.99747806097162    0.23061962972512    1.18017847899603
N           1.27191016365172    0.00390308006295    1.99073709992311
H           1.71133160804798   -0.35012187156258    2.83327852624491
H           0.61613945586419   -0.70969966731504    1.55727520443821
H           0.69781628906616    0.82661893476231    2.18658673691825
