    23
        -45.36949649  Gyration_radius:  2.26711509593 Dipole_moment: 3.756
 S           0.01338947210756   -1.41231996635454    0.89473654355602
O           0.12493493102571   -1.24262416420863   -0.53931896215071
O           1.26487284488384   -1.13177623475893    1.58761811321352
O          -1.10247336650779   -0.67650330134012    1.46655519939647
O          -0.28386977920401   -2.94684980029301    1.14035667154594
H          -0.14724375472254   -3.01985228275649    2.07921596980953
O          -0.40860907214420    1.85421719148064    0.94527331070581
H          -0.77596547440658    1.04825434011488    1.35818406293852
O          -3.12260581601269   -0.37238517568893   -0.30687408586631
H          -3.38320879649851   -1.25594112480275   -0.56955792059021
H          -2.47392319870902   -0.48358625254402    0.41389423677034
O           1.99414502740540    1.16895963464249    0.86284305609386
H           2.09927387893584    0.98480942516657   -0.21873709423046
H           1.04271161862071    1.60768845062151    0.95470541916346
H           1.83626549138214    0.23816920120505    1.24970610168336
O          -1.05922780388359    0.99882119987534   -1.47715113154601
H          -0.64771131026960    0.14010040448238   -1.26245046271732
H          -2.00380130181269    0.82819082724735   -1.33434816516482
H          -0.68874727381316    1.77914820463692   -0.00067571221025
N           1.99716530553100    0.57778535320197   -1.58114543300436
H           2.84282849353890    0.40864235464207   -2.10895889309334
H           1.39449346598543    1.20626987705575   -2.10033535481129
H           1.48730642857192   -0.29921817156123   -1.45353544947518
