    23
        -45.37054946  Gyration_radius:  2.32659798632 Dipole_moment: 2.937
 S          -1.84677701455015    0.02917774470431    0.78077125693461
O          -1.37341166681909    0.53907013613124   -0.50472432137039
O          -0.98411503470920   -1.01936332352416    1.28330628399663
O          -2.15854707380654    1.05564652792406    1.74575035382702
O          -3.23960254782493   -0.67538385268838    0.41635669580887
H          -3.68434171799144   -0.72014944923532    1.25715905408858
O           2.29204518586653    0.45423373715073    0.53517932819828
H           3.06941670721967    0.67253947405862    1.05149130294012
O           1.10232562951675    1.20130832879614   -1.86145509737494
H           0.24462117870830    1.38547894663068   -1.45337365845071
H           1.70578931766405    1.03894295680694   -1.11784245280191
O           1.20668355561791   -2.05636014193799    0.27355881234877
H           1.78908771953839   -1.28721429770630    0.41157149235984
H           0.40919962702667   -1.83788713999457    0.80582275086379
H           0.54373318218887   -1.71466927992886   -1.07108076591574
O           0.31724278698452    1.88738102462542    1.57949708369772
H          -0.58060925649466    1.53117157327655    1.75172070259806
H           1.53480253495618    0.90277531940042    0.98213465419385
H           0.17598045407078    2.71524249400075    1.11437909417668
N          -0.00142009113556   -1.20019209179547   -1.85013023417118
H          -0.38399066177323   -1.81484434159044   -2.55829412824115
H           0.60980324860836   -0.44650411777186   -2.23421905828488
H          -0.74791607286140   -0.64040024733137   -1.33757912942129
