    23
        -45.37023133  Gyration_radius:  2.33344950669 Dipole_moment: 4.357
 S           1.65134266017984    0.13515206640275    0.17672418356693
O           2.40043334340930   -0.79816985217400    1.00148446479766
O           1.04818837056212   -0.54842303754020   -0.96012476121233
O           0.69770678992363    0.93286863258481    0.91717586722503
O           2.70337839823453    1.17608799596857   -0.41440727970202
H           3.47622233038724    0.65754487161966   -0.62099780026169
O          -2.86762919765671   -0.23883200250548   -0.21944095874992
H          -3.53353053653755    0.44484198108192   -0.13347367461879
O           0.07214512984159    2.86961009725695   -0.82346194195603
H           0.92677025135483    3.11830556192654   -1.17992413456684
H           0.26458425162145    2.26617963638019   -0.08152841130281
O          -1.27003423360953   -0.63929284513231    1.82602339469345
H          -0.45136400896667   -1.73530270895347    1.32715757829033
H          -0.63150873644078    0.08807674470346    1.68596726200275
H          -1.96506033209228   -0.50556406083028    1.12736457775948
O          -1.12634827072724    0.68819642044490   -1.96481907547923
H          -0.32892395154064    0.17492692011539   -1.74307452440296
H          -2.24935078658963    0.07563046660994   -0.93263771691155
H          -0.90189480371400    1.59970264681213   -1.70316481240211
N           0.32039149735373   -2.35561109267338    0.81385385876069
H           0.29794400204836   -2.07740949064651   -0.17964455462751
H           0.21608633433577   -3.35510826415767    0.95543039404901
H           1.25045150860542   -1.97341067729923    1.12551803504938
