    23
        -45.37023134  Gyration_radius:  2.33334811808 Dipole_moment: 4.360
 S           1.47836135190248    0.09264893581859    0.76201720879710
O           0.30702596133954   -0.48146450271673    1.41164256127418
O           2.49962589245851   -0.91998522275646    0.55199315779891
O           1.14355565693968    0.83999084502339   -0.43106088566219
O           2.08971471892745    1.16255650347857    1.77237080928864
H           2.58665954591055    0.65126658470349    2.40513733512274
O          -2.51946131988775   -0.17206490944403   -1.39628507222748
H          -2.98330038793073    0.51263423613054   -1.88030772680110
O          -0.21905020920262    2.92788532875041    0.54634987769636
H           0.31341264003313    2.26021048232007    0.07485009529529
H           0.31006988800799    3.19137678404844    1.30125633020346
O          -0.08590181607902   -0.77215020750595   -2.18007128553159
H          -1.04146592174726   -0.56781886660600   -1.99505324237652
H           0.41195676598148   -0.04607498941516   -1.75417199978861
H           0.25208620600346   -1.83514190773422   -1.24381811686796
O          -1.98019803771752    0.87243360552458    0.96084483769195
H          -1.22612482742020    0.32887736685287    1.25152158577977
H          -1.59316933826043    1.75440079866472    0.81253155671915
H          -2.38055864685039    0.19221433469091   -0.48095249525964
N           0.57208760856202   -2.42182088459693   -0.35099825376030
H           0.02155945287106   -2.05906345667949    0.44287582615193
H           1.54083140468389   -2.08302689492781   -0.11643756137029
H           0.50228341145887   -3.42788396365520   -0.46423453215710
