    23
        -45.37023134  Gyration_radius:  2.33346503016 Dipole_moment: 4.355
 S          -0.54128755592621    0.04639968396889   -1.57570071258421
O           0.16430707824921   -0.65323223403948   -2.63636838902089
O          -1.07673187973524   -0.89612166566540   -0.60168821709063
O           0.23027325710616    1.10480543210525   -0.96044913344431
O          -1.78874380454954    0.77201430218206   -2.25143203023322
H          -2.11277039821707    0.15440408113548   -2.90131950660854
O           1.01740720555139   -0.05677082459415    2.70034591507114
H           1.14408488695165    0.67535256296586    3.30547379090713
O          -1.62384487011653    2.47315338779352    0.40365395795826
H          -0.87268785832471    2.10648109741236   -0.09951657683781
H          -2.34710431339555    2.53325887455090   -0.22285907821798
O           2.27886481451379    0.04501364753407    0.39950163423033
H           1.90785269408307    0.01932591659931    1.32196470395262
H           1.86085611823067   -1.21334639665948   -0.20185116818913
H           1.68117300223826    0.64175077550350   -0.09360535786041
O          -1.46683207486401    0.15369583920749    1.85057764075866
H          -1.43208238081067   -0.33200719782951    1.00711841971542
H           0.05894892238206   -0.02457938067622    2.43557977816244
H          -1.60983546690493    1.08029585488921    1.58484031893994
N           1.30227689877642   -2.02002820967249   -0.73223966830421
H           1.77237233651625   -2.91936522633919   -0.73986119200997
H           1.08879844515833   -1.64011851780750   -1.69034302044583
H           0.36470494309292   -2.05038177256100   -0.30182210883045
