    23
        -45.37023129  Gyration_radius:  2.33343919163 Dipole_moment: 4.355
 S          -1.62180472442407   -0.38310360335860    0.02970653111703
O          -2.13161206207025   -1.55820343364977   -0.65719494353001
O          -0.71697294778448   -0.76530636228205    1.10622109310564
O          -1.04725486381258    0.60691147431537   -0.85563227879408
O          -2.87249552424748    0.33351956257100    0.70912970020645
H          -3.42073471499056   -0.37695821574289    1.03081129673039
O           2.80735465670186    0.65381352804709   -0.13754077002221
H           3.21661144761914    1.49787033425562   -0.33318153632954
O          -0.86263464442920    2.76802846442833    0.71461380285211
H          -0.94003390396792    2.07978439855606    0.02742204566828
H          -1.70757499442558    2.77397263943139    1.16769538869294
O           1.19780050056343   -0.36195156709854   -1.94693791757830
H           1.88956391397348    0.02739308701816   -1.34776763575909
H           0.81709471413001   -1.61291783862821   -1.30625142103608
H           0.38533813361063    0.14731022734545   -1.75446962809543
O           1.06635283279982    1.14161292164942    1.77777261725135
H           0.44677253593765    0.39667746809275    1.67926751649192
H           2.20388121619749    0.82002560743311    0.63576903032051
H           0.54468540343139    1.92052913810583    1.51139932738490
N           0.33530615505683   -2.39636107949156   -0.67538803258645
H          -0.69535762018764   -2.33794227908670   -0.88127434764300
H           0.37830856050087   -2.04934888249659    0.29560948289646
H           0.72740592979352   -3.32535557940479   -0.78977931134490
