    23
        -45.37304274  Gyration_radius:  2.28357853459 Dipole_moment: 2.990
 S          -0.49006484480477    0.39445514620077   -1.63071800631584
O           0.88508745577464    0.23284049463803   -2.05103881799299
O          -1.00536658569804   -0.80673842242787   -0.97652393130629
O          -0.70620519475254    1.59341999893949   -0.84152331759672
O          -1.35425972973459    0.55235106437510   -2.94686188828017
H          -0.90255441398858    1.26479479799480   -3.38625470373236
O           1.06159839098858    1.06492865333297    1.13560711645185
H           0.55358709782188    1.44934065369226    0.40095220746339
O          -2.19063634107716    1.83337413942150    1.42369567849570
H          -1.77124945434631    1.78409928588447    0.54370017109313
H          -1.90932942418894    2.66927334611705    1.79912809453189
O           2.65639038689899   -0.50576432006652   -0.23993307765377
H           1.71811833145194   -1.57841884716537    0.09702524399650
H           2.23738834260149   -0.21773819018200   -1.07996492438590
H           2.33794127801150    0.17716671025935    0.39881459910518
O          -1.03480396879146   -0.61175988119366    1.73908695772830
H          -1.58976026497646    0.13603025959188    2.01642327088517
H          -1.24855804241573   -0.69946562219987    0.79311978951571
H           0.42103455733234    0.49038283005827    1.59412355329702
N           0.81522239106069   -2.20138073191606    0.27355893260146
H           0.08077766115072   -1.77808465022543   -0.36575198555161
H           0.47175892813619   -2.05790265940570    1.22551110780001
H           0.96388346353972   -3.18520406576767    0.07782392984876
