    23
        -45.37304282  Gyration_radius:  2.28344783198 Dipole_moment: 2.998
 S          -0.91940436916565   -1.01739135536997   -1.08513487108801
O          -0.01668427543145   -0.64188810333659   -2.15180607394453
O          -0.20892264196348   -1.60485110384030    0.04906437484692
O          -1.80822019225507    0.05915672847084   -0.68699426555312
O          -1.83374923394142   -2.17955513591249   -1.64793710032393
H          -2.17754077758967   -1.78466046937467   -2.44200236341450
O           0.07760367949344    1.88205869692812   -0.02979571538732
H          -0.67176547592700    1.39409194663393   -0.41193319414488
O          -2.48061772275496    0.80137156911274    1.84113784489025
H          -2.85078101732094    1.67905697391452    1.73380040049627
H          -2.35274555313548    0.45573744956418    0.93737275287411
O           1.99795098879852    0.95811923184950   -1.56552653254598
H           1.40489266695709    1.58207221539359   -1.08065821063892
H           2.28604030097855    0.03008159480547   -0.47036601271945
H           1.35673617398043    0.39703121078960   -2.05354257081451
O           0.14878796458924    0.14578673677765    2.10316712703572
H          -0.71055852595095    0.46519296194345    2.42540794435867
H          -0.10085074909728   -0.59422783904620    1.52151914817153
H           0.20004493223464    1.48090035495944    0.85041949399904
N           2.22586506174790   -0.71005081811908    0.35627037386613
H           1.32321747719425   -1.23579302575044    0.16671678005170
H           2.08589139938478   -0.22880569542199    1.24711899742673
H           3.02480988917469   -1.33343412498298    0.39370169255678
