    23
        -45.37304110  Gyration_radius:  2.28365587575 Dipole_moment: 3.041
 S          -0.48894716535209    1.66667621677266    0.20236250892178
O          -0.52195827887471    0.74684013535336    1.33775094509242
O           0.86088026791701    2.07326923802954   -0.12503689387944
O          -1.22388407321055    1.16097493216439   -0.94257354814945
O          -1.24587180612220    2.96494267410525    0.69729647038610
H          -1.05098389981732    3.57683946408187   -0.00438243023263
O           0.45644070807793   -0.84335439795038   -1.62651467638529
H          -0.10889911332531   -0.05245729360420   -1.60058663839133
O          -2.84121277717222   -1.02265034192102   -1.03974769464463
H          -2.37520005634678   -0.16733211458472   -0.97709649189663
H          -2.94860372149996   -1.19220692202445   -1.97710383735327
O           2.63998761098775    0.17989305338754   -0.58510622173729
H           2.19364145998832   -0.41374941268835    0.67628378223315
H           2.02855455804173   -0.29501427629070   -1.19893727143758
H           2.20172465682602    1.05330620464035   -0.48759901155841
O          -0.82466640254169   -1.85407898556083    0.58946253352149
H          -0.91580235515185   -0.95748275358958    0.95820729664621
H          -1.65209839694965   -1.96775284210622    0.09291982097150
H           0.07079879616784   -1.43435053513248   -0.95380765062041
N           1.60858820626812   -0.74809504267376    1.55998208418402
H           1.16692953004637   -1.64938309446199    1.36638431727156
H           0.81540109278212   -0.04551177087272    1.62430595135589
H           2.15518115926031   -0.77932213508057    2.41353664569565
