    23
        -45.37304233  Gyration_radius:  2.28362032244 Dipole_moment: 3.018
 S           0.99583073964175   -0.00745811128877    1.43726494701716
O          -0.15006317495510    0.89470204128385    1.34093119750658
O           0.58829202327169   -1.37488665556789    1.67817452500273
O           1.90315665575361    0.12544152356103    0.31209246386784
O           1.78849669953376    0.46442585321097    2.72279445566400
H           2.42766663176663   -0.23351562878067    2.81798923452626
O           0.32112201204949   -0.96611664385009   -1.58920443653388
H           1.03833445513558   -0.74164625584873   -0.97194298441920
O           1.85352771315784    2.01620517470158   -1.64143213036914
H           1.95867574760618    1.42179749455774   -0.87442803511717
H           2.41663711396544    1.65583091397008   -2.32853938274188
O          -1.13792477721986   -2.46073299905635    0.00370502653349
H          -1.95081309695940   -1.26192570564693    0.21571242451510
H          -0.62190927935350   -2.15512223968851   -0.78144086843407
H          -0.50081118848714   -2.32520334798543    0.73855046270349
O          -0.79232663495126    1.52458499405761   -1.22932765685811
H          -0.52247474328157    1.52111893678539   -0.29373749732726
H          -0.03966637258638    1.95419832059891   -1.66880304714043
H          -0.16029274504236   -0.12708496015459   -1.71086545658635
N          -2.31593040388456   -0.23056020833150    0.41054990501126
H          -1.52838555691207    0.22177759954887    0.96033535866675
H          -3.19331348781067   -0.20611740639407    0.91839299897902
H          -2.37782833041530    0.29028730033319   -0.46677151446714
