    23
        -45.37304278  Gyration_radius:  2.28362906516 Dipole_moment: 2.997
 S          -1.50737552490445   -0.88749998665422   -0.01240677909829
O          -1.00502028594875   -0.27604902840893   -1.24121489894990
O          -0.77163866295757   -2.08409544928333    0.33513273844017
O          -1.59986726098022    0.06095732384344    1.08273689779827
O          -2.98523352435511   -1.34148966787161   -0.34901304513615
H          -3.21480854283566   -1.83354535139450    0.43195734442060
O           1.04619366597097    0.40714269657207    1.51517513986874
H           0.09450566422307    0.21903567029720    1.58414926588128
O          -1.27644543725516    2.75926445905721    0.97437138533134
H          -1.52783148446037    1.81642240213694    0.99581515760511
H          -1.14422406440194    3.01354432178583    1.88912323520698
O           1.85131552170553   -1.90174701295047    0.55505739317313
H           1.78238757810933   -1.09677062895250    1.12363382895403
H           0.93006977671791   -2.24173160388865    0.56123998364213
H           1.81901271049247   -1.25157004017009   -0.75612531383189
O           0.60826092100763    1.86743185802693   -0.77590540473015
H          -0.09965500551826    1.25471441515432   -1.04348606743279
H           0.12634065694199    2.54976182374474   -0.27937219879945
H           1.10953035697480    1.05376529380519    0.78827814904838
N           1.54311022674305   -0.66895769848698   -1.66133593345252
H           0.48224824879978   -0.63877598208611   -1.63464136566257
H           1.88739977213091   -1.08014881537959   -2.52196909476721
H           1.85172468376451    0.30034100110894   -1.56120039752618
