    23
        -45.37304281  Gyration_radius:  2.28349938976 Dipole_moment: 2.993
 S          -1.36930618933020   -1.08551658001462   -0.07889662239249
O          -0.44529857764812   -2.19845493931673   -0.11416305425839
O          -1.16532638295662   -0.24442508096041    1.09890997082409
O          -1.38487655729124   -0.32023353185934   -1.31248245800298
O          -2.81741810129238   -1.69845276428450    0.09573213377364
H          -2.85206200697765   -2.31434172302491   -0.62814984409697
O           1.23598933596196    0.34156125026025   -1.37959468428672
H           0.34060728949249    0.00998552322382   -1.56408968497844
O          -1.40747785114267    2.38516401697904   -1.58669847799011
H          -1.14455416390656    2.52700510566131   -2.49753784634105
H          -1.53788753953407    1.42212933770147   -1.49592850738795
O           0.23588028744867    2.02507649740908    0.55319736980270
H           1.09353519993402    1.08408680552633   -0.76395134167496
H          -0.23078906335494    2.55535707796443   -0.11427330534114
H          -0.42936597276604    1.35933002339923    0.80311390903569
O           2.13534281561627   -1.67298536128598    0.04687589382867
H           1.27680910795413   -2.14027412624004   -0.04703279445182
H           2.07000681955022   -0.97201967983104   -0.64615660980274
H           1.79657797679392   -0.86044922241667    1.21692103468607
N           1.29915004528549   -0.20524392723481    1.96386768789130
H           1.50246298647576    0.77542672696480    1.75946437739606
H           1.53473515368162   -0.44043669954062    2.92172715307901
H           0.26326536801512   -0.33228872907785    1.76914570067263
