    23
        -45.37304252  Gyration_radius:  2.2835024091 Dipole_moment: 3.016
 S           0.88484539188412   -0.10574788907047    1.50406172495414
O           1.59591835471032    0.10179756970678    0.24405398194259
O           0.21293096436694    1.09612559428691    1.94917431466901
O           0.01139285331224   -1.26444751922386    1.46440740649086
O           2.01209257426151   -0.41871433887941    2.56940718937828
H           1.51518050496527   -0.40828364225001    3.38036122837905
O          -1.85123371651501   -0.27863534540107   -0.22995676907709
H          -1.36540480400675   -0.66076750469078    0.52079838147963
O          -0.14418913977464   -3.15156670181085   -0.48697981097135
H          -0.97405037573720   -3.59845713472116   -0.31225262156733
H           0.00202112472118   -2.55841629125038    0.27429587100554
O          -1.45962765797853    2.26821423290701    0.27840998446570
H          -0.37671869873429    2.19301690708690   -0.70342896574119
H          -1.90803970170097    1.41206388681734    0.07297050694890
H          -0.93471176287006    2.04291113622851    1.07708891735175
O           0.24461231812559   -0.86495486453747   -1.91269697554357
H          -1.30417449068962   -0.50030143795603   -1.00607727073222
H           0.88169025515364   -0.67313639121764   -1.20166015479418
H           0.09266487022762   -1.81956903996045   -1.81352122973980
N           0.51105885354670    1.90285449245378   -1.30581650038486
H           1.08802741294365    1.30653709481162   -0.64354828812790
H           1.03625999658600    2.69811758234355   -1.65226055843794
H           0.22945487316547    1.28135961429095   -2.06683039197695
