    26
        -50.46272423  Gyration_radius:  2.48185775541 Dipole_moment: 6.103
 S          -0.75713085695016    2.20874894617457   -0.14637680450035
O          -0.69960571596748    1.76809171857628    1.22559996571260
O           0.39051402377852    2.94042453938303   -0.61821061474233
O          -1.11804548855028    1.08142734452736   -1.02834887000352
O          -1.98154969980602    3.22312540902872   -0.25894642933903
H          -1.61271484014114    3.88264828305858   -0.83707713136982
O           1.74591879716074   -1.07705159249885    1.17604430205479
H           2.61909383079156   -1.23594460132906    1.53717158451227
O           0.70601924339952   -0.36806634461003   -2.43001911911251
H           0.56090562303657   -1.21942265797151   -1.99670623629857
H          -0.00942873928816    0.21457082675230   -2.12023994560082
O           0.41693510860288   -2.57389078355970   -0.60298443269628
H           0.96227092969029   -2.08176917524684    0.05497688466838
H           0.83199694771740   -3.42777596934705   -0.72797443209483
O           2.06872532570741    0.88140722029856   -0.45780677250442
H           1.84311648322950   -0.25346362227675    0.60095049178862
H           1.80447452356690    0.46969327699746   -1.30682435791258
H           1.56133223325115    1.71419702540149   -0.42242239453321
O          -0.57585698562232   -0.51223620966067    2.51681863705099
H          -1.35706306601362   -0.92191977601661    1.25818240690903
H           0.33029549150605   -0.76060392175355    2.25830864288731
H          -0.63177479453306    0.44093609203927    2.29578213239008
N          -1.71885273353144   -1.08457909079352    0.25236836121746
H          -1.13733067081351   -1.81855416553504   -0.17839292157290
H          -1.53901571453907   -0.16581543214396   -0.27602196979546
H          -2.70322926568868   -1.32417733949981    0.23214902288500
