    26
        -50.47150112  Gyration_radius:  2.42638003044 Dipole_moment: 3.426
 S          -0.84916798347234    1.67251730586131    0.15249274177184
O           0.42942456617270    1.47416479020315    0.81898899564382
O          -0.68207273084204    2.33695928117638   -1.13066163053439
O          -1.62310368385795    0.45100254459973    0.05678691207814
O          -1.69082831396065    2.64835418292154    1.06534180414449
H          -1.16368807871271    3.44011795694559    1.05724080498500
O           1.34837794851300   -2.09479487743797    0.23594315222636
H           1.75901455076341   -2.91024634822854    0.52457250032349
O          -0.66028317572685   -1.49009585733968   -1.52190307858067
H           0.01811641985243   -1.87579957720119   -0.93584778436719
H          -1.17945058258192   -0.89163777906627   -0.94984312179292
O          -2.23916495950173   -0.87935476529430    2.28149127940642
H          -2.12877155804248   -0.31027417765006    1.49379458582460
H          -2.82648362588953   -1.58967616273240    2.01827804298912
O           2.43801788456977    0.30333348492933   -0.55203256417830
H           2.26481178271018   -0.61690660984979   -0.27908709745742
H           1.54668544020319    0.47929870980648   -1.84728557675221
H           1.88781787845803    0.84314844349250    0.04833653745304
O           0.48326639363429   -0.77782201570773    2.29313286237355
H           0.50795918002934    0.11256738368119    1.89444137517238
H          -0.45852310190732   -0.93607155236448    2.48749723410013
H           1.00663976678339   -1.64460994621065    1.06629610393507
N           0.67952478095603    0.55185442269505   -2.46702456126681
H           0.10990639675189    1.35024311096359   -2.07143559198555
H           0.11900244877460   -0.33912025345859   -2.29396279730193
H           0.90297233632521    0.69284831525742   -3.44555109820609
