    26
        -50.46400347  Gyration_radius:  2.4362069325 Dipole_moment: 6.316
 S          -0.15994087516131    2.18547693018734   -0.52119000006840
O           0.17391588171270    2.10418211919784    0.88109830851887
O           0.98216502307475    2.41160497274345   -1.37724135929749
O          -0.98198837033349    1.05578306919823   -0.96164313864253
O          -1.11256411864104    3.44776707651100   -0.69845334392186
H          -0.51080712625176    4.16054556881242   -0.51284464373890
O           1.56435917508726   -1.32676557748868    1.38463477168834
H           2.40869895476133   -1.58513945842104    1.75586612245781
O          -2.17634835640043   -0.47838126327962    0.82187763088003
H          -1.34313812767100   -1.56356773666693    0.36480448361872
H          -1.91496672615642    0.20398425837255    0.16347512542702
O          -0.01213522740406   -0.91791117730957   -2.31063220806345
H          -0.37209255116032   -0.10680952013910   -1.85516945382811
H          -0.33717648918328   -0.87663919472105   -3.21074359333560
O           2.08037218765626    0.12024378856084   -0.72569372461043
H           1.67595327785469   -0.36617688375842   -1.45573330639952
H           1.79749339790584    1.04817927021280   -0.86610750051888
H           1.77352268820110   -0.67278419646465    0.66216738898814
O          -0.44068882930936    0.22988969058716    2.64415599447936
H          -0.22580341680236    1.04019007320363    2.13663128386989
H          -1.69418467033971   -0.20694992715735    1.65000531258312
H           0.30119826127770   -0.36277942350847    2.45916990177232
N          -0.55798144239918   -2.26242736346096   -0.01865659940671
H           0.28392750930751   -2.10221240451932    0.56825958219798
H          -0.34691385540462   -1.94875855589561   -0.98646309110400
H          -0.85487617421979   -3.23054410479628    0.00842606645474
