    26
        -50.46400350  Gyration_radius:  2.43621586056 Dipole_moment: 6.315
 S          -0.98435598417075   -2.01442385357124    0.21558243901114
O           0.12385564689834   -2.90367650878882    0.47926997762471
O          -1.37670039865739   -1.22299582545315    1.35757899835793
O          -0.78003623569620   -1.19611071956800   -0.98216935274974
O          -2.22515766003231   -2.93873411915936   -0.15620155195364
H          -2.25132061047448   -3.52275668917237    0.59403899827700
O           1.13145692684561    1.53736575779616    1.57527314605938
H           1.68866181357877    1.78837992679987    2.31281676084917
O           1.56901004333676   -0.56680612080032   -1.84360334825357
H           0.67877449706760   -0.88911679324472   -1.52973666472623
H           1.74628183704367   -1.04302202829816   -2.65559579592595
O          -1.69967060038200    1.27550020804354   -1.06118442263530
H          -1.54771813246797    0.30535917215634   -1.11734881189612
H          -0.33066725698039    1.72301597696450   -1.14118015266129
O           1.76913484477953   -0.91566850032077    0.95074040135546
H           1.15916911824706   -1.68296411074110    0.95179698549027
H           2.08030521028884   -0.85882806834596    0.03800127318851
H           1.29151690263524    0.56406256613132    1.43223593061933
O          -1.69888719444990    1.39578134379845    1.55037988498226
H          -1.89194732454725    1.43095656582594   -0.09640735063071
H          -1.71787079872511    0.41746738775182    1.60387528090670
H          -0.77794893568141    1.62039515164376    1.74342720273745
N           0.77067884450194    1.91226015099335   -1.08524297390323
H           1.00721779088230    1.94971866900142   -0.07446525633879
H           1.04203738427807    2.76202011084502   -1.56526481685175
H           1.22418027188198    1.07282034971245   -1.49661679093258
