    26
        -50.46400367  Gyration_radius:  2.43629036219 Dipole_moment: 6.319
 S           1.10813810493473    1.81893519483775   -0.73318437292751
O           0.80838211322414    2.03639563944631    0.66231213875680
O           2.44551066566162    1.32475757678047   -0.96882878585528
O           0.08218573567500    1.01513170197692   -1.40192269952956
O           1.01793744626467    3.23542032144217   -1.45283697517563
H           1.76442853939575    3.68394004127795   -1.07044064693195
O           0.09294665458956   -1.35057197795155    2.07131661287550
H           0.50153764942492   -1.79170753454918    2.81690264068928
O          -2.26752128014906    0.65974412189042   -0.25561737839342
H          -1.94942627053160   -0.74449721712027   -0.16694572571034
H          -1.48782491461505    0.96137198775787   -0.77375497132564
O           0.42178179045555   -1.48283560763259   -1.95045868557042
H           0.52105680671222   -1.58862053247343   -2.89732662436714
H           0.35034921112818   -0.50038200506619   -1.79379133310040
O           1.98495054421974   -0.90797152672406    0.32863721799117
H           1.70586295974251   -1.39456689478014   -0.45781293387873
H           2.25399290582859   -0.02926709417812   -0.01245036905131
H           0.84217264308652   -1.07296054998190    1.47537685473966
O          -1.23361765390427    1.15354434412923    2.09432624429660
H          -2.06558168416063    0.95750474880904    0.67311778788717
H          -0.85582694633111    0.29579013302341    2.33401835846591
H          -0.48677404900957    1.62996466944067    1.67532863522133
N          -1.51347108718629   -1.77050204307974   -0.07134448173617
H          -0.98789862847096   -1.77949169379421    0.82464571339343
H          -0.83284581937385   -1.86365026727395   -0.85086088177791
H          -2.22044543661176   -2.49547552620697   -0.09840535898501
