    26
        -50.46400431  Gyration_radius:  2.43654804197 Dipole_moment: 6.314
 S           0.81839683430677   -1.62200130788726    1.33282134727843
O           0.05366010640789   -2.78568590860045    0.94654541230792
O           1.86044943937789   -1.27629460843938    0.39513818331455
O          -0.02884839457543   -0.47510013849760    1.66845993711623
O           1.53442637760119   -1.98751687452545    2.70607094972770
H           1.99508064376008   -2.78448715410155    2.46693322417249
O           0.12090774519785    0.45697658441598   -2.42960625897093
H           0.13110305885135    0.25157732807744   -3.36518635696288
O          -2.38739582004030   -0.16316408838828    0.67081394720821
H          -1.50512149641900   -0.35041199149374    1.09687862227529
H          -3.04282994640718   -0.31383716081811    1.35305152684689
O           0.77305667174674    1.96906554554124    1.08118508817234
H           0.57249514199582    1.09601574620926    1.48728936920921
H          -0.34469323646627    2.05715291223689    0.17292944050712
O          -0.87757459912939   -1.62443355050376   -1.21281504082031
H          -0.42734015541400   -2.15193949093932   -0.51996264270961
H          -1.67245778837062   -1.28865235525432   -0.77840214895686
H          -0.13869475859839   -0.38779953018318   -1.96837529964527
O           2.35327702292802    1.04079022643624   -0.78388025495446
H           1.74660532948490    0.93361373336992   -1.52978494652849
H           1.51526744131176    1.77208272805884    0.44715259123450
H           2.35561271781302    0.15992795817881   -0.35460078583252
N          -1.17860499157758    1.92937190515816   -0.56169257765938
H          -1.64462523483625    2.80347118973367   -0.77363544164803
H          -1.82711739126650    1.23724937620906   -0.13763543916034
H          -0.75503471768210    1.50402893600706   -1.40969246552160
