    26
        -50.47150110  Gyration_radius:  2.42620658041 Dipole_moment: 3.429
 S           1.40622102456048    1.22609138467872   -0.24251710545914
O           1.67933346476690   -0.19170712499696   -0.42562508624418
O           1.15940661112651    1.88844486252263   -1.51387686595047
O           0.36114103481576    1.47112532202807    0.73115541057562
O           2.71794012836706    1.86760645853757    0.35905064184412
H           3.35332731888555    1.71890802818272   -0.33307318699014
O          -1.49538259228301   -1.96025625901298    0.42510611485466
H          -1.95890834714403   -2.71763250082504    0.78348214507734
O           0.64288264044930    0.53233965129497    3.20858339692543
H          -0.09386785231051    0.87876194482441    3.71454786741895
H           0.61899445364539    0.98882722432288    2.34397405590666
O          -2.12219370984195    0.68412508644041    0.09825212670874
H          -1.30915281238488    1.07301825598598    0.47592196099777
H          -2.06034514985269   -0.27019956388072    0.29267536767368
O           0.78265925699568   -1.68300881233307    1.62883804896203
H           1.24960975122433   -1.21246931754848    0.91269916346375
H           0.75701983581591   -1.04743696484781    2.36722498538946
H          -0.64064611921920   -1.88299637769592    0.94698346728932
O          -0.04711544967020   -1.65911608600966   -1.89182797656294
H           0.73604611608812   -1.27773029481525   -1.44926490987697
H          -0.61589823284123   -1.96307200004357   -1.15999584595770
H          -0.71071622248581   -0.29256609784565   -2.33262936029170
N          -1.04575281015934    0.72101299775976   -2.28901788622115
H          -1.65995079869457    0.79060957507011   -1.41970428647507
H          -1.52268667821162    1.01690121663665   -3.13300877735847
H          -0.18196486165142    1.30041938157244   -2.09795346569736
