    26
        -50.46183249  Gyration_radius:  2.40566683933 Dipole_moment: 6.593
 S          -1.90700382798897    0.60948962974940   -0.17961439300895
O          -1.40565497959537    1.71672607774620    0.64509794088004
O          -1.79183943313193    0.87062286389401   -1.58811895164375
O          -1.34022882100852   -0.65042539688221    0.26052036470208
O          -3.46171022884282    0.51262944172090    0.13186965468530
H          -3.85483908114090    1.09168603776415   -0.51422486836533
O           2.17802025487632   -1.17543310811435    0.17379951361566
H           3.00351639254171   -1.24617142315446   -0.30710724364673
O           0.08722709758654   -2.18185581351794   -1.47738974112689
H          -0.58939865757399   -1.73377047932357   -0.94166677414537
H           0.88293031248669   -2.16610940183523   -0.92823342632659
O           0.44047373973815    0.05037924917991   -2.98359473238027
H          -0.45119403102400    0.40825023132077   -2.85964150901436
H           0.36975040738031   -0.87454006317436   -2.66860467053156
O           0.99767839838667    1.08255260587056   -0.63884093284766
H           0.08000120272285    1.30153031404222   -0.43502564694798
H           1.75041062713157   -0.33964310510127   -0.13144985016021
H           0.95998154024104    0.80679755878429   -1.59563854126548
O           0.34896255249851   -1.32708118032546    2.18599031781747
H           0.57339078238205    0.16092240127490    2.31051542889885
H          -0.41171737696049   -1.26138950979967    1.56909191294453
H           1.09188487518648   -1.60098438686469    1.62402220952010
N           0.62684272036695    1.24097145016138    2.16305932769054
H           0.71673136331541    1.75947041130969    3.02996022185593
H          -0.27959634942949    1.49223216599232    1.64098340520620
H           1.38538050971795    1.45314340923452    1.51424096355647
