    26
        -50.46183262  Gyration_radius:  2.4057383461 Dipole_moment: 6.569
 S           0.17636852543832    1.88596031032439   -0.67265690076960
O          -0.12765562452427    2.18917331551180    0.73190271666894
O           1.58655118901711    1.76592521503350   -0.92218717121261
O          -0.62721351228118    0.77234145706040   -1.13819502283449
O          -0.31798778335198    3.14822081464498   -1.50087308707302
H           0.45026183562850    3.71059467244807   -1.52975033296260
O          -0.34846511719692   -2.42359993335707    0.39978823744206
H           0.16220390867837   -3.19983232669783    0.63310902553276
O           0.57983988361651   -1.46164137810379   -2.11504339729216
H           0.16571994238226   -2.04185901365013   -1.46179249748795
H           0.17287848889327   -0.59159433038696   -1.96338634027220
O           2.82605898434024   -0.69474238174455   -0.79503159455403
H           2.74368546146790    0.25256633548438   -0.98002450203883
H           2.18937365516445   -1.11219150382328   -1.41151778943860
O           1.09591654093268   -0.29570896473167    1.13426427614706
H           1.87596563053080   -0.53408684876872    0.56197190440418
H           0.88587629711991    0.60497082276981    0.85817322480365
H           0.19117512589947   -1.64416814036709    0.67516681089065
O          -2.46731702971916   -0.76049155459509   -0.00553584706105
H          -1.95718148632939   -0.17272001602695   -0.60370027097008
H          -1.96579950657198   -1.59182149676771    0.00066141575726
H          -2.01414711215816   -0.10318273216774    1.27643405936031
N          -1.47740672475391    0.43518192047748    2.05933727433012
H          -0.71551626952685   -0.14891585469146    2.40534083488981
H          -2.07897786481326    0.75373836425679    2.81104034475705
H          -1.00420744787790    1.25788321786879    1.55250462898063
