    26
        -50.46633011  Gyration_radius:  2.51116694268 Dipole_moment: 2.618
 S           1.21374953149525    1.03970139545007   -1.35185525456706
O           2.51153008319270    0.42286820828943   -1.49182766262670
O           0.13653479012608    0.19204600537079   -1.88851029959273
O           0.89190792293249    1.51926513290196   -0.03367428408747
O           1.23835707493786    2.31872387562531   -2.30236225473882
H           1.81529887737995    2.03415206719315   -3.00374273920216
O          -0.50605155943182   -0.34243116374421    2.40282919855126
H           0.22097599557383   -0.10664654371566    2.98072851259847
O          -2.18834594525324   -1.93422244890067    0.64255321470494
H          -2.11314584905974   -1.63529477376411    1.55597220659156
H          -1.27776642423070   -2.15039229216348    0.38151744005857
O           3.12378635495405   -1.25344000906928    0.45240738546474
H           3.74115922856931   -1.87571717293531    0.06343529586260
H           3.01099527446709   -0.53756410981643   -0.21162943870346
O           0.47702254033846   -1.50371409149654    0.16313831778431
H          -0.08436171896078   -0.70037214460884    1.58877796078528
H           0.42010549411931   -0.93950295138781   -0.62770003167597
H           1.43461280898763   -1.56875486258352    0.36511599197158
O          -1.39861795458434    1.91642502781985    1.20515126160386
H          -0.52245001574437    2.03435001389023    0.78109567818167
H          -2.02502205868243    1.09461528979578    0.05800893937789
H          -1.22765649189025    1.20393462839413    1.85390272218998
N          -2.21423008389684    0.37530522810982   -0.72319964699155
H          -2.35520241555877   -0.56248769533442   -0.26545022179507
H          -1.32108789672299    0.32680832726810   -1.28853583482395
H          -3.00209751286422    0.63234508951336   -1.30614646692565
