    26
        -50.46633003  Gyration_radius:  2.51142127134 Dipole_moment: 2.619
 S           1.45043037294610    1.10072503748879    1.03409523398498
O           0.17379066113992    0.81687417339465    1.70993808343597
O           2.51925669269715    0.25824995087830    1.51597344062014
O           1.28598247576880    1.14062365360505   -0.39508633875025
O           1.83029715956761    2.58127344940824    1.48516611676253
H           2.29821246676231    2.42667964702790    2.29939398392413
O          -0.56837643819378   -1.04100801586922   -2.17777143003471
H           0.19831779650233   -1.23055483950301   -2.72028815660123
O          -2.64262054124286   -1.38960851038484   -0.16902979298531
H          -1.83229373265102   -1.72768321725897    0.24696842441471
H          -2.47999561764781   -1.47076449459287   -1.11577766101710
O           2.64421978641257   -2.10303871432224    0.34423435030602
H           2.73437046386958   -1.19329321845712    0.70542289541930
H           3.05812850800451   -2.68156438018980    0.98740572319055
O           0.03293317771092   -1.52972759405089    0.41632197600928
H           0.13320190199984   -0.72465562776218    0.95378918302693
H          -0.26982754163301   -1.17825876392876   -1.25005564731461
H           0.93414401844863   -1.91150961069054    0.35319475219802
O          -0.79111575022846    1.64708149672631   -1.93425420833531
H          -0.82488058747514    0.73060042469966   -2.27569810148597
H          -1.63177241251832    1.48942527900918   -0.64865977617265
H           0.07992051734997    1.67636730141563   -1.48503073971334
N          -2.02176631628292    1.17701775177755    0.30715301215014
H          -2.70824169302120    1.82383455512772    0.67737540009708
H          -1.18248131091171    1.10347591520041    0.94727840386217
H          -2.41983403738311    0.20943838125821    0.18794090300782
