    26
        -50.46633004  Gyration_radius:  2.51145510109 Dipole_moment: 2.618
 S          -0.48499694851773   -0.31301186316617    2.01274893936742
O           0.67169943498187   -0.18786813469122    2.86761696686877
O          -0.85789210094787    0.96985218559385    1.39426719280971
O          -0.42377359039979   -1.36566306787661    1.03326101130962
O          -1.70077757744996   -0.66803068363411    2.98010380661336
H          -1.45676387437290   -0.21362650443154    3.77992481194650
O           0.94326635266531   -1.05833974475741   -2.03417717877352
H           1.50538479515450   -1.81100398008660   -1.84546077336348
O           0.13158579132125    1.70308667125789   -2.45463869441641
H           0.38505432054910    0.90439535493835   -2.93135799434870
H           0.73291124027616    1.73241245356047   -1.69199816865021
O           2.97804318382761   -0.34954991750361    1.59521361046019
H           2.15953839579334   -0.42877569617410    2.13370405688857
H           3.59802859520401    0.14567420094021    2.13372591779009
O          -1.58849424856269   -1.68806004085372   -1.30791208223002
H          -1.95792702346973   -0.19294854873286   -1.19665489560562
H          -0.74184862384172   -1.62013899421249   -1.79400804914341
H          -1.29418113484919   -1.79144562128803   -0.37844385476543
O           1.33522518994439    0.84219072784400   -0.14624302519614
H           1.08555738729514   -0.43447492329565   -1.28643577580400
H           0.59413079715839    0.93293785249735    0.47795956736261
H           2.07142701740709    0.46475764637621    0.38057123879525
N          -1.95718289888407    0.86620831535516   -0.99292931421576
H          -2.87435154689262    1.28338563534816   -1.09977017560498
H          -1.24719646999569    1.31285623238228   -1.62952047246346
H          -1.60646648338645    0.96518044457439    0.00045334435605
