    26
        -50.46082036  Gyration_radius:  2.43683182933 Dipole_moment: 4.166
 S           0.16700492654332    2.01406493668570   -0.62833603007799
O           0.46541475575543    1.54673530495412    0.72019443555370
O           0.71981453652800    1.12230940203641   -1.62786734923962
O          -1.25130925253394    2.26976136117307   -0.80816134537444
O           0.89428452541080    3.40587124101400   -0.80880125128853
H           1.81405701788823    3.16775281302460   -0.87769130403488
O           0.03851228771254   -2.03674100589319    1.39928465858719
H           0.15794866645451   -2.98603177894956    1.35589951355809
O           2.28195257228980   -0.45288751113087    0.68509989197645
H           1.72268807367433    0.34474855991298    0.64930942320687
H           1.78347404528906   -1.07079735155806    1.23589630323702
O           2.04965375440495   -1.68418592119725   -1.73341737701105
H           2.29009976482135   -1.29529688634048   -0.86436336314189
H           2.08308115027612   -0.94069819209647   -2.34074399430932
O          -0.46617603537648   -1.16417519438229   -1.10495145972101
H           0.26551527417619   -1.70658988627075   -1.47316914856349
H          -0.14386653404003   -1.73221631508787    0.47990903613131
H          -0.11882199497965   -0.26005361048529   -1.28732209470175
O          -1.19018508386355    0.21729974191622    2.32503791194994
H          -0.54045719784080    0.83738525075507    1.93002679626142
H          -2.10832791707959    0.15500819050840    1.09632349255915
H          -0.73959854216431   -0.64331994897334    2.32018962199223
N          -2.49672458733597    0.19205056005457    0.08576520894808
H          -2.05933951143052   -0.56545923864607   -0.45721702955527
H          -2.10950461660812    1.10736366685395   -0.31482738033418
H          -3.50919009737628    0.15810180271661    0.04393284339975
