    26
        -50.46133371  Gyration_radius:  2.45355366944 Dipole_moment: 4.911
 S           1.95133703039038   -0.77225367701989    0.30060396559808
O           2.02583782492096    0.64753372891581    0.02371510338742
O           0.79933743790506   -1.13447859370529    1.09890664333486
O           2.03986736830742   -1.56293268499700   -0.92755265634580
O           3.22641411471149   -1.14155605722586    1.15963005047297
H           3.94481685432316   -0.82202680415411    0.62272060067855
O          -2.41704284489111    0.38262440672900    0.29230871003374
H          -3.06303588155912    1.08776428265306    0.23566782776167
O          -0.42446326522465    1.02935403614127    2.19679414020861
H          -1.30046165737982    0.74256360379895    1.90501956271234
H           0.17284523167723    0.31620652795913    1.91058898285660
O          -0.13705238926336    3.17509134480549    0.57812356222174
H           0.80360352403600    3.36139434831708    0.55792594478593
H          -0.24074014272251    2.48892499388850    1.27708072850200
O          -1.49471509046791   -2.18468261925110    0.21738554262239
H          -2.07806040898403   -1.43161723805510    0.40469048606155
H          -0.90931549307033   -1.83134037810901   -1.17022413710722
H          -0.67427605506464   -1.99144306190307    0.71588520536673
O          -0.26362448622302    1.17472738179095   -1.14655683722614
H          -0.37322704933996    2.08270529321489   -0.78315922519900
H           0.61147085250448    0.93049614186874   -0.76417203779425
H          -1.63867923526663    0.67469174132675   -0.23529237776067
N          -0.31102124794330   -1.41628079477056   -1.96706158561517
H          -0.48295563228302   -1.85687575897993   -2.86384735737959
H           0.70506736530537   -1.54965896133966   -1.64092362347021
H          -0.47192672439424   -0.39893119195487   -1.99825723874535
