    26
        -50.45942977  Gyration_radius:  2.42435229004 Dipole_moment: 1.896
 S          -1.77852865954636    0.60036648278006   -0.22220846675793
O          -1.25252932249422    0.42120325840554    1.12382162126321
O          -1.80147923388469    2.01083923387477   -0.59458407811805
O          -1.10602158382057   -0.23422782904048   -1.19206111399727
O          -3.28482098068317    0.13274655211943   -0.19430060526759
H          -3.69476871856978    0.84606820376762    0.28295328294294
O           2.34811028572445   -0.27219773715679    0.72949878434419
H           3.17573284730681   -0.68030811305069    0.98434865937390
O           0.57815475119943    2.79132216641136   -0.62897742179411
H           0.80124589167040    2.55396484613666    0.37924962167651
H          -0.43624158197149    2.61493122656737   -0.68493916097002
O           0.92769641788586    1.84353242041645    1.65547418088598
H           1.59956310284238    1.15211945154616    1.48843643997605
H           0.07196194703378    1.36187055740513    1.66762812029814
O           1.35848152293651    0.63137679723505   -1.61850008070729
H           0.47346053218138    0.20605762173310   -1.61326481381470
H           1.00033418742514    1.98098417502938   -1.16326692741334
H           1.84887855172090    0.23320571680879   -0.86970773946688
O           0.35907362728138   -1.74004177631110    1.43865338744907
H          -0.31967182547426   -1.04148005217155    1.44378752078635
H           0.10526377158465   -2.33766424051198    0.69782832470589
H           1.61569813278296   -0.90511511765654    1.02029463783668
N          -0.51524783610301   -3.02341126454953   -0.79153812379832
H           0.08825345434076   -3.40906181991572   -1.50686010579182
H          -0.83674592639029   -2.11232132934261   -1.11568951112024
H          -1.32585337514768   -3.62475943038105   -0.71607642253301
