    26
        -50.46077518  Gyration_radius:  2.44588090093 Dipole_moment: 3.985
 S          -1.13210362292533    1.24348105869980   -1.31082708309281
O           0.24533884990255    1.48616155918729   -0.90653264862169
O          -1.35285298513382   -0.14703895278039   -1.65620653324958
O          -2.07045567353993    1.74630005409767   -0.31994350160092
O          -1.39128457074509    2.06255297865809   -2.64019534190044
H          -1.27039434160411    1.40542286108535   -3.31884914805784
O           1.83655769459870   -0.86159539542022    1.38131607315824
H           2.19912926876894   -1.69231832428902    1.69110838878866
O           1.83617416136764   -0.62643882714090   -1.44590021776574
H           1.23567649583596    0.14059991809659   -1.39992770125391
H           2.26002150398107   -0.65027782308832   -0.57786033575099
O           0.37890483073271   -2.90314833838186   -1.26425509796255
H           0.98690460698596   -2.14724103300936   -1.43091657955930
H          -0.30762831228209   -2.81315131536527   -1.92835137158613
O          -0.70664901078710   -1.36199863833464    0.58941085223506
H           0.91399494643900   -1.04870087999028    1.09346002124528
H          -1.00716510977742   -0.84991533509896   -0.19571272850302
H          -0.40141206013139   -2.19142315720240    0.15728226938310
O           1.17593925762438    1.78084565482748    1.57202635664466
H           0.96593308561585    1.87675956865330    0.61888809381355
H          -0.23528574901773    1.32044429873671    1.98335075537110
H           1.70233806442969    0.96666348225449    1.62444920533611
N          -1.23660168462425    0.91169407122133    1.97406901906468
H          -1.76673891405030    1.12939581212206    2.81035124726049
H          -1.17141709504438   -0.10254282937291    1.80674084590219
H          -1.68692363625544    1.32546953172340    1.09302514073333
