    26
        -50.46133354  Gyration_radius:  2.45301168698 Dipole_moment: 4.931
 S           1.23666119061973    1.70672279963805   -0.21224405496795
O           2.05530098988583    0.53740388091995    0.03427899533153
O           0.08476435280151    1.42725586600658   -1.04329746957131
O           0.86522361878739    2.37322231043018    1.03645293315637
O           2.13095990529507    2.73394398435745   -1.01538049238608
H           2.90090470060443    2.82340219589831   -0.46250929823720
O          -1.82994941219964   -1.60643233006687   -0.38984982174743
H          -2.00174278525170   -2.54865248859961   -0.36870983753855
O           0.23472495469324   -1.01133591279662   -2.23410704006754
H          -0.66278791493103   -1.25182733385462   -1.96694697392172
H           0.34921155694656   -0.10061018808632   -1.91058944239473
O           1.60894764632804   -2.72238420207299   -0.65483746771835
H           2.49775435364707   -2.36580683111563   -0.60068752608855
H           1.16237431061057   -2.17608424247874   -1.34189190070259
O           0.38421127958166   -1.17824897962704    1.10799949864605
H           0.78818149135109   -1.98817615422414    0.72176236600372
H           0.99777733703375   -0.48801925243300    0.76316617602063
H          -1.02607085116319   -1.45714206084829    0.15903451325982
O          -2.42993942167947    1.05018061244382   -0.22117053882586
H          -1.62509915390300    1.34613771880847   -0.69406874548816
H          -2.51445154253318    0.10975938134850   -0.44709027534057
H          -1.77209515380522    1.01192468192334    1.17792498749850
N          -1.05948016219255    0.95147270116983    1.98662243794853
H          -0.26724356700189    1.62016764654866    1.70036239094902
H          -0.65073647784542    0.00565261526234    1.98968326299786
H          -1.45740121518174    1.19747355164252    2.88609332331724
