    26
        -50.45942946  Gyration_radius:  2.42426977994 Dipole_moment: 1.896
 S          -0.87102177462589    0.81013094261234   -1.47055900079008
O          -0.26105284217383    0.38553619239459   -2.72609205144022
O          -1.51218226456659   -0.30819707192840   -0.79328333289502
O           0.04054450028356    1.52687673615280   -0.60756792694536
O          -2.01170523463158    1.82651889629766   -1.86300945145402
H          -2.43240974380169    1.36899677982889   -2.58300677279570
O           0.97577580916590   -1.62432850046753    1.58939405189607
H           1.24471283342795   -2.03743210742280    2.41009291231023
O          -0.07126115918894   -2.53966665644202   -0.73906099515682
H          -0.77202085830028   -1.85295780683207   -0.78235858866357
H           0.31317847336073   -2.44634728460511    0.15566746897292
O           1.54490522585191   -1.24718652468642   -2.13807948590985
H           0.92431805703479   -1.94325013427186   -1.63535184755974
H           0.86508393613579   -0.57924466409447   -2.53182634671590
O           2.19889938383413    0.07545436323142   -0.11929721372119
H           1.99048454813053   -0.70800691075572   -1.34350954315123
H           1.49782394798529    0.75454964860080   -0.22704332450304
H           1.89541218183886   -0.50650051572013    0.60815881050287
O          -1.22193759749737   -0.32670076089507    1.90565196674832
H          -1.49592735967555   -0.30952861302239    0.97116387438300
H           0.12149086281311   -1.12216619947746    1.78820192729428
H          -1.02309689630285    0.61137708027609    2.13120691584667
N          -0.56195705951689    2.30239513096311    2.09854849363438
H          -0.31555217277163    2.25037128093587    1.11106027513032
H           0.24363201853921    2.65743122431504    2.59816606408104
H          -1.30613678535763    2.98187547508428    2.19273312086851
