    26
        -50.45942962  Gyration_radius:  2.42426543539 Dipole_moment: 1.897
 S           0.02842525138596    1.88880269844273   -0.07767666829737
O           0.92438948152606    1.20229378192024    0.84234440335420
O           0.74180634900888    2.34344442640108   -1.26637908917684
O          -1.14981940247191    1.10923632840782   -0.38339935221950
O          -0.47293110849357    3.19308181102270    0.65436536766138
H           0.30601900529292    3.73803598397056    0.62357914800642
O           0.63281807194335   -2.39024732853288    0.06350020547266
H           0.63231912687103   -3.32070914676213    0.28876001088772
O           1.56887274113895    0.29302079468774   -2.44322339034314
H           1.27478546871705    1.21777232767456   -2.09451431327602
H           2.14669953126805   -0.08652300696492   -1.64048629467279
O           2.57324284525569   -0.53282779425111   -0.31038692347065
H           2.06337165887745   -1.35193919824856   -0.14848829967709
H           2.13512222256262    0.14772960445575    0.24586831120753
O          -0.14376108991232   -0.97345678156348    2.06442793916681
H           0.30402233157720   -1.89741157444958    0.88233929007419
H           0.25660468696447   -0.13009937410895    1.78673355501604
H          -1.11607349549393   -0.82542193014361    2.00916699613584
O          -0.52948159464886   -0.95933194694569   -1.91304706698567
H          -0.93655055258006   -0.23388150437985   -1.39125842225927
H           0.68290857712722   -0.28417551642513   -2.39282877562063
H          -0.21173319498464   -1.61298173428021   -1.25597308686748
N          -2.72689693808892   -0.27840192003936    1.58507003700685
H          -3.42152523476234   -0.89168358603147    1.17760304044161
H          -2.36472611905228    0.31667669982679    0.84124573926563
H          -3.19790860891762    0.31899789630559    2.25265764922434
