    26
        -50.45942937  Gyration_radius:  2.42435280429 Dipole_moment: 1.894
 S          -1.53029499047865    0.18166456213274    1.09791577875895
O          -0.99398452034771   -1.14755568624215    0.84108394927227
O          -1.15481558124805    0.65297174162450    2.42668515047991
O          -1.20422631441737    1.11927612850543    0.04720806630014
O          -3.10209278748783    0.05005134107035    1.11130170021203
H          -3.24735752482187   -0.38863347732601    1.94265598398547
O           2.20068967082433   -0.63947515678502   -0.92894872427226
H           2.88317629525498   -0.88095900249727   -1.55538906307958
O           1.34165396449098    0.85319913972769    2.44645285121561
H           1.54936957783232   -0.15818579120256    2.20877797772050
H           0.31952821771847    0.84942081143771    2.58279211856047
O           1.54133065106348   -1.47544258139546    1.56486505996581
H           0.58354233971675   -1.56140853419238    1.36561821883218
H           1.96397771048582   -1.32835117517330    0.69482674815274
O           1.37295895192453    1.71862227178257    0.10064080577052
H           0.40349350148863    1.64194400052606   -0.03552934194682
H           1.46593169228257    1.34629963538965    1.51807675329309
H           1.76969167485531    0.96585937192770   -0.38507351084370
O          -0.08483425322080   -1.54312432774772   -1.68601758193258
H           1.33365481667905   -1.00921036250846   -1.29378561236623
H          -0.52251865086959   -1.52901883908917   -0.81602643675075
H          -0.55131140147501   -0.85812816311491   -2.21845840692196
N          -1.43776335266410    0.55189165105924   -2.76589429911515
H          -1.49711813920215    0.92339851359368   -1.81880853442237
H          -2.38285382982323    0.39993745614276   -3.09468473787989
H          -1.01982770856971    1.26495646233570   -3.35028488299115
