    26
        -50.47150112  Gyration_radius:  2.42621270928 Dipole_moment: 3.427
 S          -0.13553312302878    1.69301420528094   -0.80943951525589
O          -1.49455366499110    2.15439438835169   -0.57252075204616
O           0.60994504487772    1.57355364149094    0.43486495469624
O          -0.08315075532160    0.48525054306174   -1.60869294405475
O           0.58283489137593    2.80976078073365   -1.66433707089510
H           0.47977341124260    3.58196659244975   -1.11846768592842
O           0.60525363620611   -2.06094777556724    1.28258753014159
H           1.03055011970090   -2.83025195076255    1.66234654866482
O          -1.31135163590379   -1.69012116461810   -0.63606621941257
H          -0.64500106940823   -1.99667362751839    0.00766523927206
H          -0.85820490497189   -1.00243139583260   -1.16203880709521
O           2.28462739382116   -0.48306851805468   -2.35325396085278
H           1.42666633377133   -0.04115257227164   -2.19477250488076
H           2.10391723838364   -1.21363517023881   -2.94691108751597
O           2.40302870252192   -0.43387802455212    0.36824752901483
H           1.34319224830868   -1.48488670595180    0.91856086472883
H           2.57643262637564   -0.54257995534678   -0.58458254717576
H           1.87828714885060    0.38631962758514    0.43291241222947
O          -0.48246279515856    0.16980380938921    2.46452926997493
H          -0.08303654081219   -0.69532352684498    2.25598639402948
H           0.00579150437172    0.80462497870015    1.90479254917194
H          -1.82751590110791    0.16597000801848    1.63215073343897
N          -2.48923656750330    0.16152205489181    0.79334809473874
H          -2.21076301516881   -0.68246693340102    0.20345800098225
H          -2.24260099241112    1.02125757196665    0.22912150039044
H          -3.46688935401853    0.14997913904060    1.06051147363968
