    26
        -50.45942959  Gyration_radius:  2.42425457042 Dipole_moment: 1.896
 S           1.75930462545244   -0.35748402995742   -0.59302719815805
O           0.71502051338136   -0.10921901623906   -1.57702432407587
O           2.60836895020073    0.81612126721421   -0.41874735953665
O           1.23223973415547   -0.86954184738041    0.65173126032232
O           2.69099129963936   -1.48469732682977   -1.18449063505585
H           3.15856644360033   -1.00726633026251   -1.86135123710883
O          -2.24969975134181    0.97357725088518    0.33031184953254
H          -3.19137885385110    1.04302598466190    0.48822719341708
O          -0.50729194795336    2.23574536455210   -1.32094873556494
H          -0.08078722411759    1.40669686194793   -1.62955823426318
H          -1.29369626716546    1.93923139520849   -0.82024662037286
O           1.15235040080656    2.63355980368254    0.50313983860785
H           0.45374580375247    2.64859683195800   -0.29306506889209
H           1.87714394970889    1.98665507240642    0.15747612745593
O          -1.70433166442841   -1.17860585712874   -0.96744912891107
H          -2.10562010034499    0.10433635814940   -0.16487177794655
H          -0.84370675673928   -0.89690742404068   -1.32610674569847
H          -1.49264500662435   -1.90334146877886   -0.33469970523444
O          -0.08916788968516    1.01841529293334    1.95318578516044
H          -0.96660386153544    0.99246769399706    1.51787594113225
H           0.39055658140216    0.22398904781778    1.63228757686465
H           0.65273726722691    2.07113582038063    1.24784627615302
N          -0.73342680414670   -2.96450927647653    0.83611485350047
H          -1.09420219581655   -3.08944540813167    1.77361035027401
H           0.08729812577193   -2.36352794671336    0.89778274926208
H          -0.42576538143244   -3.86900812381930    0.50199697910080
