    26
        -50.45942960  Gyration_radius:  2.42427435352 Dipole_moment: 1.896
 S          -0.57159137608396   -1.17296373388143   -1.36830818210330
O           0.10012302045770    0.06715249779093   -1.73070432279172
O           0.33221417942722   -2.31299485304974   -1.47827862920131
O          -1.22836934249815   -1.08814668644698   -0.08345064731274
O          -1.70587253359250   -1.41217179726387   -2.43817842986096
H          -1.19651666827306   -1.67150133299821   -3.19843330982623
O           1.31821002031632    1.53032893025700    1.42780853021109
H           1.54371856210979    2.25899298785198    2.00632352592804
O           2.15883322678495   -1.95379399355613    0.19723724937897
H           1.46994557341989   -2.25280693911766   -0.50937376942317
H           2.49500606055221   -1.02391108626206   -0.18294238689033
O           2.52933663387312    0.35065832802790   -0.69281166871231
H           1.72030579873932    0.34585422774649   -1.24949626126609
H           2.29739391814202    0.90680568708073    0.07789334533015
O           0.55296017804103   -1.02312966283790    1.87288128426447
H           0.80644304198254   -0.07679935006608    1.88872086909675
H          -0.23143189869580   -1.07872188516006    1.28483960087304
H           1.56004182641202   -1.67097560049477    1.02309969152504
O          -0.55497951277862    2.20972639949752   -0.19797118028568
H           0.57090990411838    1.85854833230955    0.83170550639592
H          -0.38433333095374    1.53460041934340   -0.87894135614396
H          -1.43032543146583    1.97049353361709    0.18539663684257
N          -2.85923355243170    1.13050409908646    0.75609607330079
H          -2.47004831626117    0.22461055736297    0.49833661539427
H          -3.70990547995572    1.26072463788958    0.22338163094238
H          -3.11283452134058    1.08891627327866    1.73516957437116
