    26
        -50.46116143  Gyration_radius:  2.44794904363 Dipole_moment: 5.237
 S           0.61366766914099    1.91395715162881   -0.68321678319710
O          -0.28255402814821    2.71555900845453    0.15160715428896
O           1.49777879456260    1.10381212271504    0.14523008150546
O          -0.08742478116200    1.13940323518027   -1.67373120145453
O           1.52900924635581    2.94190821759470   -1.45687343593046
H           1.92333375316562    3.44523716540965   -0.75152916252060
O           0.00565103332286   -2.22665703023144    1.08452191141423
H          -0.25005267107743   -3.14370368091679    0.97864062821066
O           1.75645621755783   -1.37586784540057   -0.96216449283821
H           1.45593758832654   -1.83626981338460   -0.16613270385018
H           1.74841357700566   -0.43374434100222   -0.72211979198584
O          -0.35600463581581   -1.95024912086378   -2.57331346448373
H          -0.38761391884894   -1.21521096326643   -3.18947909349396
H           0.49025868055457   -1.82608685957726   -2.08904978226882
O           0.69672268845228    0.03139964608865    2.44495497060591
H           1.16866517211462    0.46145661706029    1.69860921399142
H          -0.70361465855267    0.57172497400471    2.10330047505529
H           0.64127612303177   -0.90569319113034    2.19695521691096
O          -1.53124742956769   -0.73235748953912   -0.54075882867596
H          -0.58347236084318   -1.69990022542541    0.49359887228783
H          -1.02639380327930    0.01952300515930   -0.93223842014123
H          -1.44977233982286   -1.38921571230295   -1.26669602788723
N          -1.55338899600768    0.99051730496666    1.58092312338525
H          -1.90430953644086    0.28922119739297    0.91411119507671
H          -1.12879151100423    1.79597815137870    1.00859942170886
H          -2.28252986304143    1.31525847599037    2.20625092428437
