    26
        -50.46116153  Gyration_radius:  2.44799716578 Dipole_moment: 5.233
 S          -1.20598690522380    1.46338631678098   -0.95477126897493
O          -0.83060326528341    2.60239698367641   -0.11549948690096
O          -0.03480547098034    0.91391233938406   -1.62621395576026
O          -1.95896400791800    0.46570605568084   -0.24043313423018
O          -2.14856991596594    2.04051708518753   -2.08254854165538
H          -1.60928201773937    2.71506628892565   -2.48330854955502
O           1.77189443533225   -1.67566482799195    0.42958202502659
H           1.95248420274874   -2.53590590828393    0.81027768171629
O          -0.17631682903906   -1.81045915059347   -1.61120643456574
H          -0.27776015040064   -0.84990074344283   -1.72253509717885
H           0.67915701664768   -1.91951522248224   -1.17279900693516
O          -1.77003152528208   -2.69353600711836    0.40606090040366
H          -2.59962100565288   -2.23060997944680    0.26966092180969
H          -1.24504608123373   -2.49583199380785   -0.40102666273422
O           2.35774783236693    0.83115924797133   -0.46403415005285
H           1.65940562031185    1.36080800440070    0.80171864036213
H           2.44096972582329   -0.12066869984029   -0.29131616748946
H           1.58289532807753    0.91129580951496   -1.06219546203051
O          -0.46541074441401   -0.70700925190806    1.56657379061320
H          -0.90265589999661   -1.58541568844611    1.51788876555456
H           0.95973261027004   -1.33546147751848    0.87503734159838
H          -1.01670162552689   -0.20476728101731    0.92056101992202
N           0.91166871455761    1.65318931027921    1.52672218951239
H           0.48380505628838    0.80140898509427    1.91538330846244
H           0.16301534136705    2.14882889114233    0.93470152507256
H           1.27897953088114    2.25707095390559    2.25371982803575
