    26
        -50.46116140  Gyration_radius:  2.44770378455 Dipole_moment: 5.250
 S          -0.71507504370400    1.81929086654048    0.82633403566715
O          -0.88044765848310    1.35529951830386    2.20485392097960
O           0.67468841158025    1.69200988680354    0.40612413761493
O          -1.63392867824153    1.19419493190706   -0.08883754894773
O          -1.04777600832928    3.36276772785433    0.84004042898520
H          -0.44458157302543    3.70248169917922    1.49360731737521
O           1.47949396844078   -1.69610776773450   -1.03584909204005
H           1.52513542533843   -2.39009029358906   -1.69449481763374
O           0.76355715478683    0.79081351994824   -2.16751996890889
H           1.30980398036069    0.02232220902526   -1.95081287501271
H           0.65109192351172    1.26153740549285   -1.32429555136791
O          -1.52770799625803   -0.51937470267505   -2.81815262069455
H          -2.22258663620434    0.10928903103555   -2.61061927991433
H          -0.69692867944826   -0.00167147913336   -2.72998860093614
O           2.21672814632465   -0.32540706996343    1.20132929561677
H           2.28366612007356   -0.83633112741585    0.37840920565327
H           1.81908545452021    0.53184219381997    0.93347206810306
H           0.95809240584211   -0.90167400078723    1.87457617054994
O          -1.09883077287192   -1.35891141781509   -0.34700322014118
H          -1.38815570108314   -1.43760441885744   -1.28249725625451
H           0.52872633239402   -1.60536600759164   -0.78770504950916
H          -1.31163774402681   -0.40985994392281   -0.18105686880436
N          -0.06612488615368   -1.08796768683546    2.16899186238597
H          -0.47760164642409   -0.10261354035604    2.29686314989203
H          -0.14107013706843   -1.64103180376706    3.01552856076145
H          -0.55761616184619   -1.52783770944168    1.37870260658232
