    26
        -50.46116248  Gyration_radius:  2.4465948594 Dipole_moment: 5.277
 S           0.78258270627016    1.93233547769742   -0.38578497960886
O          -0.48928491664105    2.60812088308430   -0.64684303844373
O           0.80400302634187    1.38363262941267    0.96430502266038
O           1.11320788909034    0.95544712943958   -1.39036812009272
O           1.89493653547220    3.05156668511565   -0.43943356274304
H           1.60272910065205    3.67076000608714    0.22212156688757
O          -0.65242465732440   -2.09043668562053    1.16260548044677
H          -0.68239898229512   -3.04523992000776    1.09210587081009
O           1.97437975655294   -1.08113474000831    0.91829161546188
H           1.72410593182977   -0.14233734431207    0.88439887223496
H           1.21114394165048   -1.52695469002117    1.31157472145665
O           1.83490523931061   -2.16342915170082   -1.57272788176557
H           2.02026613733291   -1.84910091030720   -0.66034388360871
H           2.20735192348963   -1.48285737568964   -2.13792205120536
O          -0.55717947174770   -1.06344607184046   -1.32055515750135
H          -0.63682186038060   -1.73989860033074    0.24015986188620
H           0.01514207496247   -0.26065113596445   -1.35970041351906
H           0.08684839637105   -1.74540873733942   -1.61208111749036
O          -1.37094091856791    0.36233213547310    2.10762210186511
H          -1.15617051515799   -0.58446029758987    2.09085339751778
H          -0.53131619552578    0.81515531112782    1.87367939094069
H          -2.07781152168271    0.58947531656186    0.75976056245592
N          -2.27815927975568    0.79108602198130   -0.28426206373976
H          -1.62512397783600    1.61414149094137   -0.51406494020206
H          -3.24967798564425    1.01857244958084   -0.46467629805004
H          -1.96429238679172   -0.01726990578137   -0.83871497665695
