    26
        -50.47000428  Gyration_radius:  2.463225116 Dipole_moment: 2.758
 S           0.36750027205141    2.04263029456154   -0.77517058919202
O           0.76420968522991    1.88331280781416    0.60256749278776
O           1.42287072337669    1.83823182940141   -1.73714427103990
O          -0.83840906227088    1.25068016653505   -1.06555521334277
O          -0.09681719647877    3.55446543892732   -0.97066471908323
H           0.66101384164774    3.92216342633449   -1.41258877418926
O           1.25044685256887   -1.71544987239845    1.36916227688946
H           1.99343090602500   -2.25294635021388    1.64597660985235
O          -1.14955645487557   -2.35894568155167    0.18795262804110
H          -0.29165419099475   -2.33531354622176    0.65114578755348
H          -0.95376809128114   -2.12602026256092   -0.73481203070715
O          -0.48871955309129   -1.09961293099308   -2.18617799566586
H          -0.63846703119030   -0.19038964360384   -1.83155852427795
H          -0.68542416905174   -1.05911417876745   -3.12273670913329
O           1.93036095946546   -0.64350752790084   -0.92323458771199
H           1.25653102378636   -1.02758531908208   -1.50542667364393
H           1.92158841332705    0.30793670250210   -1.13641439411213
H           1.55459335839230   -1.22912622206438    0.55680147658835
O           0.11385926603388    0.40213734211223    2.69479433300629
H           0.47530944664819    1.09101750277849    2.10147607219582
H          -1.17746069304044    0.20937768286302    1.84070136305288
H           0.60334989440604   -0.40298430820079    2.44637648804765
N          -1.87011010057307    0.03537771650342    1.03871469805730
H          -1.54177510421667    0.62204315393085    0.22703039032363
H          -2.82390087378360    0.26011158334644    1.29550918348668
H          -1.75900212210626   -0.97848980405666    0.74327567222386
