    26
        -50.45278083  Gyration_radius:  2.44258015986 Dipole_moment: 1.429
 S           0.47674311720854    1.78205149222675   -0.24198313528830
O           0.80740191933230    2.95248865800352    0.52073378606919
O           1.61342689310706    0.88196921646295   -0.42531731763710
O          -0.71845029722559    1.07400202014606    0.15988536176500
O           0.11839221345271    2.29778785141326   -1.72625818895140
H           0.69431808128690    3.04528415193449   -1.85429323473393
O           0.28967714051964   -2.57360939769904    0.58451821591599
H           0.96473833454915   -3.14904782863434    0.94801662661133
O          -0.95420974864878   -0.27967204928425   -2.52027542082766
H          -1.63549571124367   -0.63079670085331   -1.87039885974385
H          -0.80993923141702    0.64538311986601   -2.28269944729969
O           1.79318292144829    1.48660896784645    2.55030606399194
H           1.54830068099510    2.03261170283846    1.78134289063572
H           1.68674463259097    2.05054908663202    3.31973720302252
O           0.01868306253190   -0.52376341747205    2.14301285413193
H           0.18128487445874   -1.82100772467739    1.24139579527941
H           0.80162994878682   -0.02327017258588    2.43784474685137
H          -0.39141012241358    0.07434152495922    1.48911889705251
O           1.07501722127656   -1.28592666033504   -1.47755708828271
H           0.22386292454828   -0.95768952840413   -2.02143484063804
H           1.39937726716782   -0.38957377554991   -1.03223169109772
H           0.74262753585724   -1.86415497323861   -0.69775966975014
N          -2.41005118673836   -1.17993854512581   -0.51610709381601
H          -3.41037299262827   -1.30831021983510   -0.44247914171236
H          -2.15035190745125   -0.35809565067378    0.02190646264678
H          -1.95512755135416   -1.97822115794978   -0.08902378418384
