    26
        -50.45064690  Gyration_radius:  2.41480703025 Dipole_moment: 1.314
 S           1.58182487394599   -0.70557288777666   -1.08440721712485
O           1.31332379401101   -1.78945033701018   -2.00350421930322
O           0.80847676929950    0.49603687982859   -1.34437379054934
O           1.49713076608322   -1.09794840982803    0.31345570145130
O           3.09670743450453   -0.28492909854982   -1.33987791068264
H           3.50062078272423   -1.12028153814886   -1.55178560055298
O          -2.06794784609660    0.04527949822711    1.53077388457207
H          -2.99700009120720   -0.16780257406845    1.63200483067407
O           0.26017115502444    2.87371189439405    0.07494358551832
H           0.86750346504472    2.58498907349646   -0.61781655576786
H           0.52655494433072    2.31228316850553    0.88640601605791
O          -1.25268022223586   -1.44955195449943   -1.69494895373365
H          -1.71655180856684   -1.57815789348240   -2.52396225459960
H          -0.30243632687050   -1.61609237683556   -1.88302594069695
O          -1.49682561236336    1.28641297792740   -0.62360432040330
H          -0.85572033346367    2.11120960694557   -0.30727498329887
H          -0.78789551454667    0.72032182807112   -1.06397573348083
H          -1.76885475932886    0.79301310205760    0.23797000136789
O          -0.87413182227672   -2.14249518283255    0.89914713395027
H           0.06563911934286   -1.87996182442705    0.80763079620245
H          -1.59404213280155   -0.83468447674254    1.37494722772023
H          -1.19254785280696   -2.18481289446862   -0.01709704746991
N           0.81088243963996    1.13711113828235    1.92393366577197
H           1.49148129204398    1.29555720406000    2.65529707659936
H           1.14112754225135    0.35185680654074    1.35662452321118
H          -0.05481006564964    0.84395827035970    2.36252008457237
