    26
        -50.45064816  Gyration_radius:  2.41733498505 Dipole_moment: 1.284
 S          -0.13767888380959    1.76813667002330    1.01687255349074
O          -1.45668106698607    2.19143234483241    1.43173253088282
O           0.26879715810368    0.48189624853218    1.55682905733666
O           0.06372534381319    1.82538948074295   -0.42201165287881
O           0.87457038113180    2.82056260293165    1.65328987834970
H           0.36123075963133    3.62192061011245    1.63762351925683
O          -0.45374870910075   -1.83810988745367   -1.73587919241460
H          -1.06282337038974   -2.50614834185779   -2.05455839112429
O           2.36066454463335   -1.37057932872166    0.99152012501149
H           2.38378421367359   -0.88033790620441    0.09604088403735
H           2.20615883544636   -0.67184633679855    1.63868984868696
O          -2.42477453738864   -0.15141191224314    0.81524936213697
H          -3.07121025693158   -0.43393091953416    1.46433741872891
H          -2.12822600928110    0.74271189047910    1.09414276532450
O          -0.04263715237610   -1.90798994204105    0.77959853666973
H          -0.25723814009109   -0.97449958022357    1.10416152006687
H          -0.22843716666104   -1.91505422687498   -0.23361178395268
H           1.03645781307431   -1.85730548809478    0.88613829064823
O          -1.73510355011547    0.39078244344003   -1.74977508267381
H          -0.93383217086593   -0.95279031524909   -1.83159901322783
H          -2.29736244094397    0.20267067805591   -0.98116219808038
H          -1.08104136866623    1.03538295157729   -1.40754546580540
N           2.03624135486329   -0.05304507491505   -1.22374078726737
H           2.79513549944154    0.39141898861934   -1.72352760830223
H           1.39001509152003    0.68139893085261   -0.92316348578938
H           1.53401384827434   -0.64065458002300   -1.87965162906628
