    26
        -50.45064679  Gyration_radius:  2.41499513921 Dipole_moment: 1.315
 S          -0.86344348462639    1.56810091519519    0.98519619425968
O          -2.25197401102248    1.42198799154048    1.36226847724169
O           0.01295663512616    0.55643584944081    1.54906624914546
O          -0.66429854361065    1.70158920795118   -0.44921771539333
O          -0.37998209703633    2.94044154632349    1.63372798909237
H          -1.16675507090942    3.47331579768966    1.57911956927884
O           0.38248884296876   -1.87013093511355   -1.72716130684659
H           0.10684181839598   -2.72608441754436   -2.05898286874020
O          -2.16817216681565   -1.11640846348405    0.77460828393737
H          -2.68642485374487   -1.62862848153767    1.39743412573575
H          -2.26559317337039   -0.17612362144768    1.04366946797284
O           2.66464822775468   -0.29040402974642    1.07350396174099
H           2.52171065532207    0.16093431112406    0.16776798173174
H           2.20584650650951    0.28676427624239    1.69674317885897
O           0.70753871704528   -1.77056932771312    0.80143480336020
H           0.11364062032476   -1.01445167399676    1.10640846660930
H           0.57454126761411   -1.85319256336516   -0.21585512083765
H           1.66831272752093   -1.27197616376732    0.93898933034848
O          -1.69228244988866   -0.35263362653539   -1.78335140982792
H          -0.41310934139054   -1.25593815403792   -1.84053366274807
H          -2.14386720422641   -0.74873479589360   -1.02053705682030
H          -1.36487941853067    0.50513395364794   -1.44045133558389
N           1.91750125845731    0.77014775154489   -1.17496062079012
H           1.02189393758435    1.18440605371388   -0.90332054872345
H           1.71387011189417    0.02652403413610   -1.83320442528829
H           2.44899045868716    1.47949456564882   -1.66236200771346
