    26
        -50.45064770  Gyration_radius:  2.41629985689 Dipole_moment: 1.295
 S           1.45201669707861   -1.41428138150624    0.26419956386143
O           2.72942025861979   -0.96023921237205    0.76772100908928
O           0.33383334318285   -1.13600963226104    1.14896839707591
O           1.17487186807320   -0.97377341745794   -1.09364073393094
O           1.54857134730929   -3.00323457745516    0.20910424157978
H           2.46680947422880   -3.13805338643085   -0.00194955795710
O          -1.17378742079534    2.15901085819129   -0.75437933239152
H          -1.24756518851181    3.10918324734198   -0.65182467308919
O          -2.49358193558674   -1.17613586674377    0.88986672572276
H          -2.28183198244732   -1.10704296629906   -0.10712156361092
H          -1.81238387134795   -1.76677362284165    1.23414858788473
O           1.70249477123313    1.36953645424640    1.33297426917923
H           2.15077749802813    0.50990339869138    1.17317914169067
H           2.04667900785225    1.70092385361080    2.16407475331378
O           1.28420389897976    1.67000990487453   -1.32909360414074
H          -0.22895120684656    1.98388827311529   -1.07032244118580
H           1.64230714287512    1.83327195371774   -0.44170975888261
H           1.31307420434756    0.69428389896626   -1.41612575350883
O          -1.20495662700752    0.85866302041273    1.43945841851971
H          -1.20369014742862    1.41758859446747    0.57454473419527
H          -1.91590938989067    0.05180586694421    1.27452338456730
H          -0.36059014080210    0.30430635141781    1.42301146691844
N          -1.62585021316641   -0.81345306392522   -1.53071921245306
H          -0.62052902346547   -0.95390095632867   -1.40016199452214
H          -1.76007887950804    0.15971187411127   -1.78101536758798
H          -1.91535349500924   -1.37918947645542   -2.31771066031609
