    26
        -50.45064653  Gyration_radius:  2.41437785676 Dipole_moment: 1.326
 S           0.47025428688619    1.89590865632613   -0.59946026927522
O          -0.53428846843657    2.91514347413047   -0.38998884449981
O           0.90149846426451    1.23118847788055    0.61757952667524
O           0.11207564314345    0.93428000526393   -1.63019199516739
O           1.76153381971174    2.66162478277193   -1.13196471618332
H           1.37657419893830    3.35859574780473   -1.65346983462603
O          -1.28753020141964   -2.21241931992936    0.27833965837920
H          -2.04472122896183   -2.65870066160788    0.66078914406868
O           2.37548646735875   -1.09379107020816    1.21239745529595
H           2.53692673676363   -0.14400896422008    1.14692274281795
H           2.11384738940740   -1.36546311313013    0.26246327823922
O          -1.90965254927152    1.28811226965781    1.11114235770904
H          -2.31347191610503    1.75676303746412    1.84345987496263
H          -1.43000884619690    1.96423988205964    0.58285821648907
O          -2.20723854730541   -0.24862504708554   -1.10319479523592
H          -1.40497556975872    0.17324960890993   -1.47593456573078
H          -1.66195463247526   -1.50195714056577   -0.33653357888287
H          -2.43924735592974    0.32029169230649   -0.35128353917660
O           0.03280458314239   -0.77347899312458    1.92040250859994
H           0.04659882917057    0.14344886040348    1.50234453134663
H          -0.52011725754523   -1.37175532612840    1.29145202614284
H           1.07822777735952   -1.03653651932718    1.74299311455702
N           1.39074251478091   -1.55363640259902   -1.14470702957851
H           0.99784141953392   -0.63538566094631   -1.36830488031125
H           0.61200935240698   -2.19610619046318   -1.05245326959053
H           1.94678506050452   -1.85098210563393   -1.93565710701254
