    26
        -50.47229187  Gyration_radius:  2.48077598996 Dipole_moment: 2.003
 S          -0.22470048374113    2.01814088914518   -1.03425058260837
O           0.34721563410515    1.53719388084754   -2.27718699984873
O          -1.61818294128991    1.66571764911711   -0.85243190826068
O           0.58247942586024    1.63505910776950    0.11982342347270
O          -0.17095282810360    3.59973420705977   -1.12228522765643
H           0.63353939678980    3.73092671436311   -1.61264097979481
O           1.27043292957031   -1.78772550732452    1.62957043732174
H           1.94458214391908   -2.33135989755486    2.03755894902094
O          -0.89373746119471   -2.23170336861757   -0.01273930158728
H          -0.14184081875433   -2.26711333261924    0.60585358468684
H          -0.52668152977721   -1.88051947008906   -0.84606385356241
O           0.24920057233232   -1.04966752915736   -2.20386892612217
H           0.24076045897285   -0.05993373889536   -2.26047452100261
H           0.05526099345504   -1.36480237894116   -3.08797904710356
O           2.24059532847805   -0.39254266423709   -0.34561049190351
H           1.82779554660508   -0.77243285986175   -1.13336651478972
H           1.75249412069203    0.44322869467244   -0.19148894741536
H           1.72312462234705   -1.27449153196083    0.89955816628330
O           0.01169182721165    0.51132485350333    2.49842920284195
H          -1.35744260101197    0.15230702337793    1.77129429101475
H           0.51686527700223   -0.31592597984894    2.40020052658597
H           0.32809925662034    1.08425622356835    1.77347304127746
N          -2.06322411234923   -0.10448704444613    1.01586748225006
H          -1.97359263030734    0.63559220592687    0.26371902388686
H          -3.01116269604324   -0.15438936166839    1.36987825983803
H          -1.74261944131528   -1.02638679414549    0.59516091315361
