    26
        -50.46281207  Gyration_radius:  2.46847434932 Dipole_moment: 1.923
 S          -1.33135981920614    1.41928923623977   -0.88182488069111
O           0.03136896341156    1.70143143841982   -1.31582406634788
O          -1.56252261187534   -0.01286368708001   -0.74992015377832
O          -1.70691472963792    2.15978988078565    0.30330595338326
O          -2.29103476810328    1.91979586797552   -2.03747381107624
H          -2.12417665590919    1.33534542142903   -2.77200417656969
O           0.86537202879937   -2.06378362106464    1.13841344401715
H           1.35994767637885   -2.52760136324550    0.45841295285216
O           0.45373362498569   -0.65083345329702   -2.42253453482165
H          -0.31624112327833   -0.93363432042976   -1.90803678433676
H           0.48752890128956    0.30587146748217   -2.22843667407441
O           2.65044054915564   -1.20805276671134   -1.00876682156418
H           1.86217705684721   -1.10106989318338   -1.59437129586264
H           3.41597612176591   -1.14611707682496   -1.58041353211806
O           1.53070946804559    0.66992857338260    0.63624906450383
H           2.18532530819836    0.14436683464508    0.13997644548998
H           1.02857412734198    1.14776907136243   -0.05608192390628
H           1.12698709429372   -1.13526498573243    1.03932782736525
O          -1.69963240396417   -1.37906462713212    1.54178733594371
H          -1.11198215951326   -0.10552276012872    2.15163590570933
H          -1.85332118621277   -0.99470470208467    0.65483098598186
H          -0.88559469610357   -1.91069560239306    1.44192801319524
N          -0.63571225599781    0.86209860669820    2.28023569024661
H           0.34256227328473    0.79042381015741    1.95548359723484
H          -0.69498678107383    1.21415718413214    3.22921546074040
H          -1.12722398290726    1.49894147658585    1.58488598851845
