    26
        -50.45023525  Gyration_radius:  2.51038711059 Dipole_moment: 0.817
 S          -0.04396026823848    2.01860723261010   -0.32217491721924
O           0.15276506841259    2.10677530095458    1.10790133138438
O           1.12821979922181    1.44252148811711   -0.98812547059862
O          -1.26386062730042    1.35068539179277   -0.71788725868677
O          -0.15591304832372    3.50773491034931   -0.84482641802487
H           0.51565938789903    3.92010338719901   -0.31304064153220
O           0.77507911276610   -1.72934675393382    1.46396490298754
H           1.21505819256100   -2.20094559384965    2.17303803984826
O          -2.90829829854180    0.11497055699735    0.97432959934349
H          -3.61497427290675    0.72156768867557    1.19994259109445
H          -2.36408058312554    0.57268660376596    0.29953807017688
O           1.75253701385943   -1.58348880506657   -2.29121979616195
H           0.77460796988634   -1.60899144004044   -2.00163997765006
H           1.81887034547095   -0.86271722052662   -2.92179878311611
O           2.35520323812339   -0.51702542062985   -0.10812591655235
H           2.25176858676462   -1.05290475204267   -1.00921953445843
H           1.88027302928480    0.37898031858904   -0.37296084706957
H           1.73552139516289   -1.00132330907509    0.56345410917823
O          -0.70363269497873    0.05053563947586    2.53820290066268
H           0.17595771820380   -1.04220474131772    1.91660695243357
H          -0.35053463259913    0.87640226867899    2.14499104965880
H          -1.58973092882474   -0.05009943564130    2.13621299703136
N          -0.64753741397173   -1.40420715468383   -1.29944322280276
H          -0.83642497795555   -0.40473578036609   -1.21512394993814
H          -0.60469252589868   -1.77930243531905   -0.35790875454352
H          -1.44788057495702   -1.82427793471083   -1.75468705544237
