    26
        -50.45023488  Gyration_radius:  2.51123816483 Dipole_moment: 0.858
 S          -0.87520970382426    1.80223384553558   -0.41076797152045
O          -1.01147501001404    1.90976301974849    1.02483690568219
O           0.53253155308436    1.84207063478492   -0.81846378486223
O          -1.56811246758625    0.67510053121673   -0.99408895461698
O          -1.54167269391321    3.10237056990358   -1.01782308730349
H          -1.22188406071858    3.75406939582634   -0.40397484506231
O           1.17755660674885   -1.26598900287463    1.65524392036539
H           1.64133854377410   -1.52369586980383    2.45351804937550
O          -2.78816668996925   -1.22337094719465    0.42106080591746
H          -2.38467365375307   -0.54721606574369   -0.16284287899951
H          -3.71636775239439   -0.99483345311544    0.48812899237501
O           2.66081353823201   -0.54486534966343   -1.85902287935056
H           2.51554544730450    0.15370813005991   -2.50115441537100
H           1.76156268071493   -1.01494464562530   -1.75224037918852
O           2.31678986280177    0.58631057237042    0.34757905729776
H           1.55175977150223    1.19127454671415   -0.03646937999357
H           1.86409341590080   -0.15037527228521    0.91481608885992
H           2.62754819602331    0.09924143325278   -0.53336779606803
O          -1.10622905828433   -0.37359318034718    2.36030253002843
H          -1.09224131718574    0.53953497919393    2.00340652768402
H          -1.76671146611241   -0.83933848921373    1.80925434903811
H           0.26412839272258   -0.93543539618993    1.95874769355908
N           0.29588096188287   -1.49487343571881   -1.33160877578297
H           0.32894876947935   -1.85143113658670   -0.38250109344108
H          -0.13599445734959   -2.20734040506104   -1.90618848239611
H          -0.32975939907117   -0.68837502917584   -1.32638021622352
