    26
        -50.46281243  Gyration_radius:  2.46852451194 Dipole_moment: 1.928
 S          -0.19306756527657   -2.11937146992720    0.18906923897655
O           0.57725595616799   -1.41232937390242   -0.82503226298285
O          -0.00272070988601   -1.53096069126737    1.50924657651010
O          -1.58875324990347   -2.26282056665261   -0.16507049753745
O           0.39834490318225   -3.58656635648543    0.25485887338133
H           1.33828244436628   -3.47271985287634    0.36670759441683
O           0.37882789233612    2.27642650455550   -0.98906368472176
H           1.20725070468130    2.57350665710403   -0.60494416288210
O           1.57614258779047    2.05935661373861    1.66583325014711
H           1.96179051240213    1.19011164248458    1.39859334796539
H           2.00037143475961    2.29571744928354    2.49089160052281
O           2.31971539004590   -0.41088542587571    0.97347157249979
H           2.07805580308264   -0.55132692777991    0.04653180513636
H           1.57887869473898   -0.83959670601999    1.44417541079756
O          -0.89123006720327    0.96804085083854    1.21138254117755
H          -0.64460809891742    0.03898518897665    1.40055231639172
H          -0.16692361583627    1.49328627820553    1.59941882419085
H          -0.10921763892177    1.88916189539620   -0.24594889203599
O          -0.39723221217600    0.29804633466731   -2.63108568496148
H           0.01979370341101    1.11583657477193   -2.29568795547264
H           0.06544805128868   -0.42521130468581   -2.16106243450647
H          -1.65104714065246    0.26065297915552   -1.75597625041468
N          -2.33880362065133    0.10178286365586   -0.93054418450104
H          -2.02440671110267    0.67244460127354   -0.12862367496766
H          -2.18697898552520   -0.91104280960937   -0.64436583035217
H          -3.30516847265743    0.28947503086858   -1.17332741692333
