    26
        -50.45023515  Gyration_radius:  2.51125827026 Dipole_moment: 0.840
 S           1.90624803055018    0.40405966772841    0.62164449339802
O           1.72748754861536   -1.04716178940074    0.51430440182149
O           2.05692099361292    1.01462576418793   -0.68058358078555
O           0.88613080327092    1.00747756689213    1.45006569257936
O           3.28140746731887    0.61952235491535    1.37352012264024
H           3.88784220071673    0.44768258716551    0.66183514922383
O          -1.40156620087609   -0.33071411654272   -1.91308072389662
H          -1.71114905764217   -0.44562069594755   -2.81290982460473
O          -0.78348681501566    2.90745731022484    0.61474644365812
H          -0.41734617719492    3.75702611587193    0.86458959998136
H          -0.18528219330969    2.23193553078672    0.99787216259077
O          -0.96745607027994   -3.03095130517336    0.84402140605477
H          -1.29631071582542   -2.09244259398027    1.07183511645498
H          -0.26412217658724   -3.22012701932867    1.46930673272735
O          -0.16468709715931    1.89817428558671   -1.81607204883296
H           0.73013903973997    1.62800741432172   -1.51989042464596
H          -0.93255158487962    0.57250120453467   -1.89345025581776
H          -0.53493463122293    2.38693742969091   -1.05389485196804
O           0.23672887535972   -2.11084213137408   -1.14892237244574
H          -0.41468061340600   -1.38656868003493   -1.49686275374399
H           0.94344002730878   -1.62418850760281   -0.54684474948761
H          -0.30518894769903   -2.63355996993169   -0.41252434021618
N          -1.54447323827287   -0.51809022677161    1.20086220022586
H          -1.88616690565100   -0.16703036977934    0.31260654311821
H          -0.65334909596109   -0.05476601148769    1.38280550636437
H          -2.19359348550672   -0.21334383454696    1.91502035560615
