    26
        -50.45346014  Gyration_radius:  2.47900218146 Dipole_moment: 3.246
 S           1.82476680578980    0.37895839643335   -0.94691117378216
O           2.62375697118872    1.49684532486286   -0.53657458777962
O           1.67330215572136   -0.66176046546348    0.06400243054626
O           0.52047594565216    0.75366164541963   -1.49159552575633
O           2.59945572972595   -0.32582627488981   -2.14470311818920
H           3.03434471329642    0.40270623545625   -2.57546712804703
O          -1.46093952678804   -1.25482109315815    1.60596788742095
H          -1.04273574445239   -1.37545185584852    2.45918480907060
O          -1.22228662561368   -1.07561571216592   -2.16510668442200
H          -0.57613611454729   -0.33162231811459   -2.13101482242867
H          -2.04295969984297   -0.72072647628444   -1.74770227867444
O          -3.10356490897847   -0.05502320518034   -0.55557257129898
H          -2.58744031767618    0.67493682211968   -0.18632487725700
H          -3.22630482933485   -0.67894414055965    0.16581465605185
O          -0.88394275558994    1.12169397031809    0.72760811951230
H          -0.18165603347761    1.47648965760999    1.33035156163686
H          -0.42079666918992    1.05406010010539   -0.13275464347282
H          -1.24733021120351   -0.31558402782014    1.31790177863914
O          -0.14052533568879   -2.31687197362803   -0.31477286867306
H           0.70291186663279   -1.71099933972047   -0.19383941746876
H          -0.72333975875507   -2.04494175086302    0.47612712002218
H          -0.64042041516562   -1.89285867917408   -1.18779595545153
N           1.35405640026820    1.81183137429732    2.00153464525997
H           1.88058731668177    1.78255884271879    1.12718474895508
H           1.75244150084314    1.09788827793665    2.59927356677850
H           1.53427957052586    2.70941663557665    2.43518431879305
