    26
        -50.46281232  Gyration_radius:  2.46852661705 Dipole_moment: 1.927
 S           1.07794405000763    0.47719198110624    1.78188515250417
O           0.63305771035414    1.70873606785193    1.14105073468901
O           0.09584392791309   -0.58752002596350    1.62830551068330
O           2.40662056513920    0.07873677166799    1.36983599131915
O           1.16884144133198    0.77861538529278    3.33357276364918
H           0.26823280067348    0.91612890811069    3.61454560100568
O          -1.29939103971060   -1.28160017019797   -1.72469142357165
H          -2.18167572599285   -0.90382387581511   -1.69380680806879
O          -2.33316598784675    1.43246168341956   -1.41570064869348
H          -2.30520318385376    1.31062286208029   -0.43586520450477
H          -2.83189868015638    2.23504438274650   -1.56944174991255
O          -1.93630163024565    1.13498634063796    1.20887345973920
H          -1.64186481705105    0.22666698921191    1.36883334966324
H          -1.09149753243750    1.62533314765549    1.20652015135462
O           0.37118418526138    1.01726729907177   -1.42321661279309
H           0.54261559343825    1.34773546322853   -0.51700288608695
H          -0.70527492192927   -0.51566333191237   -1.69701352969224
H          -0.51450013847928    1.36202097659489   -1.64181516174304
O           0.27519915016024   -2.66303325056355   -0.04420413415765
H          -0.45682968569072   -2.42654931152813   -0.64707812619236
H           1.40999532569442   -1.85369170645960   -0.67365117714362
H           0.15834591921280   -2.07339115167489    0.72829661740604
N           2.08579829849439   -1.04845512046897   -0.94676199066548
H           2.37708212310474   -0.61508508410361   -0.02043924306918
H           1.54403873156369   -0.32089320019190   -1.44150163880874
H           2.88280351104926   -1.36184199978461   -1.48952899690302
