    26
        -50.45346043  Gyration_radius:  2.47946340904 Dipole_moment: 3.243
 S          -0.83048986007943    1.58761036925246    1.07564028117434
O          -1.38144062716571    1.13684127623517   -0.19772104974306
O          -1.66377146821498    1.32183939203286    2.21212555870028
O           0.54612828501088    1.11936842524558    1.22941348110553
O          -0.72890974746788    3.16956015430687    0.93901103987992
H          -0.77169619069927    3.46542954495333    1.84231937912412
O           0.09659360336599   -1.54505034660702   -1.97524469769511
H          -0.76478145196732   -1.89552679029795   -2.20461861436455
O           2.25094384523955    1.31174748170334   -0.74482386998940
H           1.75576746864104    1.37584719689164    0.10523232192335
H           2.65143367164478    0.40984908694963   -0.73997252581246
O           2.77473406399996   -1.31405533350075   -0.71511042625840
H           2.39832999050933   -1.68587054328144   -1.51810767732271
H           2.17216394842385   -1.56584341532725   -0.00156419637486
O           0.20346186416181    1.01076115985239   -2.10618221393788
H          -0.50693020600614    1.17089401407621   -1.35535031057334
H           1.15369146921149    1.21840381370958   -1.61145013811175
H           0.18341370576899   -0.00241619311571   -2.21645008817751
O           0.29165093949638   -1.44753967477992    0.61431324203943
H          -0.61469863402740   -1.63135489974241    0.97094508658560
H           0.14773449837786   -1.55837535466189   -0.97131754459204
H           0.45690517940143   -0.52544763350006    0.90025541433481
N          -2.21615903902234   -1.39257443373095    1.51748230680477
H          -2.57215264146857   -1.94001294318702    2.29193474189285
H          -2.93911590205161   -1.35895551927236    0.80903761295176
H          -2.09280677507448   -0.43512882420455    1.85020288645112
