    26
        -50.45346049  Gyration_radius:  2.47965718249 Dipole_moment: 3.244
 S          -0.20955965771069    2.04216304004061    0.39272219238792
O          -1.10230275285148    1.32815198910816   -0.51352644768849
O          -0.82279564636938    2.47371252529168    1.61510743684146
O           1.02870221057249    1.28908267920390    0.58638624797341
O           0.21127063399740    3.35578866332160   -0.40035625959559
H           0.42734234264202    3.96618590632016    0.29685610197091
O          -0.66958666430344   -2.12816583884201   -1.14881143096585
H          -1.61609916482751   -2.27246591391463   -1.12256313708926
O           2.27935513179241    0.22375511970048   -1.44885156948060
H           2.45956034911890   -0.68481512148348   -1.10859527999326
H           2.00132167253366    0.74234767652102   -0.65788346103744
O           2.19597752132297   -2.22992981196350   -0.37948942650842
H           1.58583977604580   -2.74923843894368   -0.91125359531274
H           1.71585458964885   -2.00961874253146    0.43083048824676
O           0.08352868401265   -1.12863682473451    1.12870435033796
H          -0.74500658487776   -0.89470932648902    1.61989800339340
H          -0.41245246616713   -1.77870843717392   -0.24196474238918
H           0.50694688619787   -0.25719738765317    0.98524382841634
O          -0.02297618999165    0.04260105922301   -2.34468476368045
H          -0.29206645631478   -0.88516165419600   -2.01919496163617
H          -0.50535592309847    0.67087300344243   -1.66169950187665
H           1.03189174708283    0.13521155611946   -2.08099474306741
N          -2.10086136975936   -0.01701083488596    2.17756938965034
H          -2.93190529738092   -0.04371163900482    1.59943177624337
H          -1.70008461868693    0.91536232167404    2.06477276377875
H          -2.39653874261513   -0.10586553813191    3.14234674107695
