    26
        -50.45346054  Gyration_radius:  2.47974155026 Dipole_moment: 3.242
 S          -0.84874665655742    0.06527570765790   -1.90885622615448
O          -1.64387241118067   -0.18618355492310   -0.71196289966579
O          -1.09753386654721    1.33175648253944   -2.53386436362535
O           0.56561004311089   -0.19569103269868   -1.64503321303385
O          -1.30239300536163   -1.05573432411844   -2.94281774332815
H          -1.11174953475736   -0.65813656348002   -3.78601273835212
O          -0.13108332643083   -0.30601262460729    2.48706525761913
H          -0.86313361249512    0.17589022212270    2.87345877944604
O           1.31320333197491   -2.34460318532781   -0.35509075930544
H           1.15650394530976   -1.62355626407135   -1.00890426528178
H           1.94944489480659   -1.96494529891818    0.29670018304694
O           2.60437350595792   -0.92768326916159    1.51458889681128
H           2.40286064041367   -0.04308298729861    1.17911463694931
H           2.10514042626568   -1.01692413594980    2.33161086028506
O           0.92569541217735    1.14987591853724    0.61166123223825
H           0.27299340326204    0.30204249260905    1.79597727929940
H           0.88414563662664    0.67257048471771   -0.24257795599085
H           0.31034750885040    1.91379892882853    0.46952201205117
O          -0.87951732189657   -2.03897992134847    0.75580692873761
H          -1.29116812747350   -1.33877367645289    0.09712785698024
H           0.06881116075915   -2.30846582573935    0.28740541022990
H          -0.62021525532310   -1.46330445232263    1.55608519253379
N          -0.98262461787662    2.85982824580328   -0.12470028155497
H          -1.88126479626579    2.74149069539404    0.32710975743322
H          -1.05632741736519    2.40847570081333   -1.03770561999467
H          -0.84949993998270    3.85107222738804   -0.28570821737737
