    26
        -50.45346051  Gyration_radius:  2.47970128745 Dipole_moment: 3.244
 S           1.49704556336991    0.19974956416642   -1.44491975136809
O           0.54800623545354   -0.90811486454511   -1.45537805704152
O           1.33057972230799    1.13629392343916   -2.51807031308204
O           1.54203600326199    0.81955991707346   -0.12133146590484
O           2.92119039675506   -0.48110356651308   -1.64426504085565
H           3.43910958203756    0.21699719234060   -2.03121584849252
O          -1.94649507762700   -1.19295778386224    1.04188625849932
H          -2.59572307048758   -1.46511818048431    0.39239753658855
O           1.66209526721266   -0.64789225370246    2.04033175098883
H           1.81663209013416   -0.01606827072718    1.29948196577880
H           0.96985519817827   -0.22165170509214    2.59967800608385
O          -0.54641355878430    0.46251115886728    3.07012103218058
H          -0.75077488627237    1.06300845546954    2.33986897897174
H          -1.23362206764338   -0.20998066367907    3.05518473263440
O          -1.04075566894669    1.15162071126255    0.38107268506505
H          -1.38197130620867    1.33723649425555   -0.53081250183996
H          -1.64935149559901   -0.27079997718739    0.77389331321832
H          -0.07142941718664    1.10774829970059    0.24796752455322
O           0.36269933657086   -2.22648659953357    0.64192040996850
H           0.98719609254411   -1.64246006244116    1.31999976104195
H          -0.59329262182846   -1.95797475216310    0.87241133444337
H           0.50907010149939   -1.76816065914862   -0.28661720871436
N          -1.50003416006088    1.38276883544905   -2.23496254651440
H          -1.89987223275686    0.56953733318875   -2.68709906878689
H          -0.49784024864846    1.35797653172058   -2.42906679543896
H          -1.87793978728463    2.20376093213096   -2.69247670198292
