    26
        -50.45346029  Gyration_radius:  2.47908150655 Dipole_moment: 3.245
 S          -1.18214474776984    1.71817728195932   -0.14228562456720
O          -0.81974600978826    2.76081342222529   -1.05774773727467
O          -1.55830074501077    0.45907484804375   -0.77572781162108
O          -0.19243596098911    1.48396401556114    0.90831684279081
O          -2.49629183915865    2.20375371312712    0.61188015343260
H          -2.38103930203340    3.14721757574778    0.65646329863917
O           0.48903959127905   -2.41480114265068   -0.46810003525922
H           0.34322042032704   -2.64341744309565   -1.38673662301567
O          -0.49696759900723   -0.46796962796627    2.62163515968623
H          -0.39216844974408    0.39775450126860    2.16158995101413
H           0.40262562944912   -0.87339356455290    2.61176665299347
O           1.87620567782708   -1.54622180064586    2.00811001463217
H           2.14199112284436   -0.91387610732460    1.32611330177524
H           1.70009424283964   -2.37048468416747    1.54515602845714
O          -1.62064774970186   -1.54311533599349    0.69386675081690
H          -0.84280516040727   -2.03896927211101    0.26006573223116
H          -1.21142526770674   -1.14173166615267    1.62295748571665
H          -1.72120972055125   -0.70052929144348    0.08300176601393
O           1.55961720545017   -0.04945166903221   -0.36110149756778
H           0.98682525738405    0.55077792243941    0.15943320961770
H           0.93652117596707   -1.51448785379099   -0.46957583518687
H           1.49843993091309    0.32451584347560   -1.27701305023268
N           0.89054788064949    1.12737392736220   -2.65769050952867
H           0.29763847659677    1.79493013826005   -2.16229454721155
H           0.27709403234510    0.59160652376757   -3.25962308045395
H           1.51532190802780    1.65848975569412   -3.25245998590099
