    26
        -50.44895804  Gyration_radius:  2.52218452738 Dipole_moment: 2.912
 S          -1.51459245034121    0.79068311447395   -1.62863674939384
O          -0.55871086306774    1.68734687507162   -2.24772498888144
O          -0.96336851775780   -0.56585218317405   -1.50267868699472
O          -2.06140449338784    1.23947697907006   -0.37438426230171
O          -2.71612325415110    0.68408850491068   -2.65907836006811
H          -2.27747770683056    0.87067173552233   -3.48246311224280
O          -0.41191799447863   -0.26743869342699    2.49169794188379
H          -1.07214225461127   -0.15777363838463    3.17805611393292
O           1.56739171158573    1.66320357025636   -0.74878996669543
H           0.79134742037354    1.62794867440651   -1.36165560474623
H           2.10994276997499    2.38914046721039   -1.06284586171237
O           0.85192941710208   -2.85980021346397   -0.22019919452448
H           0.72443543799574   -2.62665683673589   -1.14426826389967
H           1.45277839040190   -2.13936364812660    0.16137088289755
O          -0.19535425515536    2.00955114278454    1.31675838553405
H          -0.29700057226727    0.64705037490654    2.07624209897291
H           0.56096231297047    1.98527526138087    0.70333165229934
H          -0.98045074739156    1.89261350377273    0.74048147038929
O          -1.25026364064814   -1.78907954932709    0.61596152451990
H          -1.27652774675417   -1.20384579888975   -0.26299857909774
H          -0.42039681204642   -2.39033039788912    0.37829268229099
H          -0.94460981242727   -1.17383944870446    1.38144417961912
N           2.13181024243316   -0.81293571054151    0.80026811831562
H           1.64575403020675   -0.61468228024739    1.66770685759875
H           1.98256342912460   -0.02013024224936    0.18020656075639
H           3.12142594914163   -0.86532155263283    1.00390518151923
