    26
        -50.44895808  Gyration_radius:  2.52200434723 Dipole_moment: 2.911
 S          -1.33959912403369    1.89726154572185   -0.41877688234029
O          -0.27524254642169    2.84925692023301   -0.17009392036171
O          -0.91603813305950    0.86795570480316   -1.37841287458993
O          -1.91853170972359    1.29594852047307    0.75456458339175
O          -2.48324137015068    2.72773125005223   -1.13958281302644
H          -1.98291076727201    3.42796098705461   -1.54521711618466
O          -0.57899895070678   -2.01684967241733    1.43286081356786
H          -1.26562362373013   -2.39839845105836    1.98238200196165
O           0.60786341726089   -1.76765894758226   -2.33602233109889
H           0.55471927019136   -0.90466418435239   -2.75673450415307
H           1.24660131799762   -1.65192727221874   -1.55873912968444
O           1.74757974321422    1.48235425076056    0.72877986275437
H           2.36877847449153    2.13355436243329    1.06052243435126
H           1.00932144308319    2.00239469248006    0.32437575376953
O          -0.09580722037399    0.32174936729991    2.38652797074045
H          -0.85281517587863    0.76226629252570    1.94484888647788
H          -0.36045528543274   -1.12312228769466    1.85184197465160
H           0.69018091691812    0.69331941318875    1.94713858149963
O          -1.43667122443243   -1.49524397086685   -0.91843350760546
H          -1.35867799744665   -0.44965886674320   -1.04590238274295
H          -0.65063724386919   -1.78848448349391   -1.55335593438172
H          -1.12332461579880   -1.70852533621530    0.03774592472685
N           2.00117968980391   -1.34681932119066   -0.15633099822174
H           1.48522613806448   -1.82552271463766    0.57348489811160
H           1.95813821040688   -0.35032026432579    0.04470486980183
H           2.96898637689922   -1.63455751423857   -0.09217617142234
