    26
        -50.44895807  Gyration_radius:  2.52214392731 Dipole_moment: 2.908
 S          -0.35093067535601    1.19166815240783   -2.00628139853109
O           0.70201773212508    0.50999593201283   -2.73260904065615
O          -1.25855116364212    0.23120094412056   -1.36330789338673
O           0.09136067710634    2.18721251411057   -1.06464458533908
O          -1.20932069362992    1.93511833898648   -3.11431133460941
H          -1.04228704421802    1.39449403893150   -3.87916596290294
O           0.16576453286562    0.94737595851873    2.35120302486309
H           0.13231625042283    1.76160406221278    2.85610584158023
O          -2.16662452986717   -1.88036904663374    0.85496143489948
H          -1.18949697462638   -2.04081848130044    1.06681117209936
H          -2.23502227131256   -1.93394513066526   -0.10262223474064
O           1.95625750318321   -0.97523590987375   -1.00365342180187
H           2.75179568520230   -1.27120141661756   -1.45031891391751
H           1.44489505378504   -0.46766304857661   -1.68180812190602
O           1.96701243813627    1.28104302792861    0.54649805658199
H           2.13364960721182    0.43359095588130    0.09601824960668
H           1.38907940059149    1.77639659513330   -0.07218061599589
H           0.91445184018588    1.07191679083456    1.68345532987681
O          -1.95778454533385    0.61149197107411    0.96757935036313
H          -2.17415502945440   -0.41295231020159    1.06755754784467
H          -1.11220187706863    0.77872229085413    1.52874639737564
H          -1.66343456189889    0.61127565727081   -0.04704386422728
N           0.40890228216277   -1.97475895877324    1.33270975466335
H           0.88814959709219   -1.71647421066375    0.47312336616536
H           0.84266670644842   -2.81663303678013    1.68858032596962
H           0.57149007985338   -1.23305568025068    2.00459754614068
