    26
        -50.44895807  Gyration_radius:  2.52218055277 Dipole_moment: 2.913
 S           1.65952819059288    1.65342968035912   -0.28950717906481
O           0.90749637104690    0.94681800190163   -1.33587803693667
O           0.86666672522604    2.71585160095036    0.29674098861667
O           2.23354755197297    0.72150966755018    0.64620418322936
O           2.85894960376903    2.38485603952336   -1.02676158172866
H           2.47600635034537    3.23534007905626   -1.21454273148470
O           0.29984852869934   -2.34289752459966    0.93504597546007
H           0.95025547912695   -2.95289145158613    1.28700544591325
O          -1.27868439184842    1.60181357302055    1.25795496050497
H          -0.50048855448672    2.04468993090476    0.83679300448944
H          -1.69642564931491    2.27556637082424    1.79789672992428
O          -1.26525088141463   -1.09453308928003   -2.47954162199825
H          -1.76140039750881   -1.02469237822892   -1.59946881387127
H          -1.07884588116112   -0.18878637908929   -2.74302532570761
O           0.95063374892316   -1.51538562140385   -1.39478971064839
H           1.08835316643304   -0.47092877707399   -1.32012064759807
H           0.72037343038146   -1.85946927032751   -0.45326320114179
H           0.04631204725749   -1.51539795308234   -1.93250524594552
O           0.45878505325621   -0.20589984847361    2.35648407310654
H           1.23287538060994    0.16510725235057    1.88184030387001
H          -0.27556958397521    0.39097175469473    2.12546040695199
H           0.33444413813771   -1.53127292407200    1.53671401657905
N          -2.25137631647193   -0.88116395578066   -0.06054850673224
H          -3.24294523444242   -0.98761184103060    0.10973651743032
H          -1.96772362192927    0.02508693266166    0.30488394069319
H          -1.76536526322504   -1.59010985976475    0.47719207608961
