    26
        -50.44895801  Gyration_radius:  2.52221099906 Dipole_moment: 2.913
 S           0.30781091763077   -2.32776820233820    0.23804357913327
O           1.42601950120575   -2.20352230317859    1.15194258648357
O          -0.83733467469537   -1.52526910108343    0.69009647225187
O           0.60637610891199   -2.06039999516432   -1.14497561541994
O          -0.14900913540971   -3.84374752824240    0.33986817621376
H           0.13936686756630   -4.07056357812122    1.21768923139475
O          -0.33169105793972    1.30178567084318   -2.15572970245690
H          -0.39994531586982    1.20872496271221   -3.10740510309041
O          -2.51022299840827    1.15825361313569    1.14575919948702
H          -1.64354804234601    1.67940653407802    1.09153851454974
H          -2.33875966238294    0.43532754031829    1.75606902683420
O           2.02377018608611    0.32604361991903    1.25862825441785
H           2.86798227756674    0.37029134435426    1.71176621607564
H           1.76222613422596   -0.62806522055789    1.27832293871282
O           1.89555092888142    0.21230461294091   -1.47347014298301
H           2.07417658928642    0.40263773976313   -0.53498715164498
H           1.55407029189514   -0.70721761414166   -1.47486795485877
H           0.57141552636253    0.92039161044734   -1.90915468813509
O          -2.05765904283138   -0.14348453963108   -0.94355041777936
H          -1.36911616271134    0.42015424627451   -1.45929615289598
H          -1.51749526071192   -0.84337963458013   -0.36552932803864
H          -2.40612435392192    0.46868028874640   -0.16211711575161
N          -0.16898189229273    2.27985139150152    0.78568580807171
H          -0.09977871969359    2.41019247738180   -0.21741456510112
H           0.53931625788696    1.60018511383634    1.05338440448422
H           0.06158473171196    3.15918696078512    1.22970352004754
