    26
        -50.44895809  Gyration_radius:  2.52234266995 Dipole_moment: 2.914
 S          -0.91086809218806    1.75635861218147   -1.28765218192009
O          -0.15681341798619    1.42665176901708   -2.48084060815428
O          -1.61055458074813    0.57640274997697   -0.76044995237700
O          -0.16550220747540    2.41675280874926   -0.24765052699931
O          -2.04108423415702    2.75930041338810   -1.77113726431349
H          -2.13977846321682    2.50845691579527   -2.68363048070604
O           0.91440019639559    0.13304410802124    2.36582169823325
H           1.06621903356863    0.73162463368469    3.09908633502242
O           1.51688288941355   -0.44908902444653   -1.81156006034895
H           2.12558883224333   -0.52356038502836   -2.54908768731456
H           0.83924247431941    0.21463442323199   -2.09331974959030
O          -1.86062024278568   -2.20759159701960    0.78751356507421
H          -2.22216064966832   -1.94894261276609   -0.06508779936712
H          -0.87175826457540   -2.35785186367337    0.62907999586511
O           2.08240940470419    1.16909131296095    0.32270556412685
H           1.35966363085980    1.79718344554784    0.10985485242892
H           1.42481905584809    0.52367380182313    1.58548118823830
H           2.07247149647572    0.53047373807052   -0.41281089141359
O          -1.54248998666177    0.11728976450801    1.65860805130719
H          -1.75224236192189   -0.89613410903198    1.47000312095630
H          -0.55984313567463    0.15193900260025    1.96042028604868
H          -1.57592728435096    0.47211803281862    0.66420470959919
N           0.73201391594775   -2.26825896244144    0.40775162795411
H           1.22499167729673   -3.14679226754880    0.31453114635559
H           1.11858712352833   -1.77775884548523    1.20648352337233
H           0.93235318078626   -1.70901584490720   -0.41831846203573
