    26
        -50.44895802  Gyration_radius:  2.52224519647 Dipole_moment: 2.913
 S          -2.02621695946527    0.21367642289293    1.19166609171570
O          -1.82262378250187   -0.40290700025775   -0.12675664907871
O          -1.63044020387114   -0.68691027169729    2.25627952244648
O          -1.43580335215630    1.52609972618015    1.23997900590755
O          -3.59400506323505    0.39300294437818    1.35677355390596
H          -3.83404246729994   -0.42052849135367    1.78778563514783
O           1.40994055058987    1.86359014640572   -0.99590946075543
H           1.45858234344078    2.81429675372212   -1.10905027387689
O           0.87418964399267   -1.26153330027170    1.85132972939045
H           1.16846133113340   -1.69983476591577    2.65213505098453
H          -0.09473764928839   -1.10432212455155    1.97616284020475
O          -0.12508187369662   -1.38990989084683   -2.64715453565163
H           0.69470913585568   -1.41970208821027   -2.05331450033710
H          -0.81439232403549   -1.84871471416888   -2.15844175566482
O           1.18020281811972    1.43970836270864    1.53006035665283
H           1.37641076737587    1.70982782489086    0.00263399286907
H           0.21484523436161    1.60974175547076    1.56617187704762
H           1.26452828747120    0.48543409383432    1.70654994856320
O          -0.77589164820971    0.91634552151469   -1.92429343535373
H           0.08990477836049    1.32826201080175   -1.55211342555455
H          -0.48919321062083    0.02684479873372   -2.40731015683708
H          -1.29477473046003    0.49146547200299   -1.10816991523572
N           1.86603060436269   -1.20643963527164   -0.95272500381343
H           2.67777149739634   -1.80464813609223   -1.03500174820620
H           1.48268125914296   -1.32777071842088   -0.01804852038940
H           2.17894502324032   -0.24507467644448   -1.02923823407838
