    26
        -50.45090565  Gyration_radius:  2.46062281288 Dipole_moment: 4.285
 S          -1.68181565191007   -0.55981757660948   -0.61839936838427
O          -2.35387126678411   -0.74185338694870    0.64244661327783
O          -1.36035369223272    0.80544787466468   -0.96300402425376
O          -0.48052037410590   -1.40475703629997   -0.74754107544693
O          -2.69319123034897   -1.08601262853473   -1.72417856377932
H          -3.30813442555768   -1.57716498476904   -1.19027158324208
O           1.54619051482896    1.19633545158148    1.11131295504239
H           2.30451343035503    1.12886063159935    1.69349794239688
O           0.04321892645949    3.10015889491814   -0.30906283557482
H           0.64029586923238    2.71080356647045    0.34354382835620
H          -0.71913220176449    2.50256321223718   -0.33791557836100
O           0.53389114838461    1.82956040450939   -2.56866408255557
H           0.51532207606296    2.54431712472992   -1.88360449646992
H          -0.36917769207444    1.47683546393870   -2.52611618881766
O           1.52181881891177    0.01322532697610   -1.15952793543854
H           1.18675468280860    0.77038972480278   -1.83602426470886
H           1.61954452301921    0.48423767149362   -0.25811185126349
H           0.70128834881961   -0.62864156948149   -1.03458968313309
O          -0.26409118629806   -0.21765189815038    2.21800071788086
H           0.78986613939265    0.69954959852455    1.57492114523182
H          -1.10911919641630   -0.30606888820304    1.73726155780657
H           0.13024539516253   -1.11845956356014    2.18667679546871
N           0.69751730060882   -2.68482805683626    1.57747635840632
H           0.17247368938286   -3.45161663634451    1.97859883004537
H           1.64513815806136   -3.00738405360496    1.42698548623652
H           0.29132788586953   -2.47802866694523    0.66628931122800
