    26
        -50.44895807  Gyration_radius:  2.52240034808 Dipole_moment: 2.916
 S           2.15748161402404   -0.94947700249808    0.13220190934753
O           2.84334382924405    0.27263761465478   -0.23813454759707
O           1.21361672614597   -0.71400192985394    1.23373073041116
O           1.51724543103100   -1.65176723971260   -0.94958970901731
O           3.28514381064348   -1.90183047989195    0.71407282939285
H           3.92633035305924   -1.27034813948108    1.02279586197763
O          -2.05026962018549   -0.97633888112766   -1.13768724855828
H          -2.36745229482104   -1.73262667020913   -1.63409295711261
O          -1.50575782688267    0.30345943946144    2.56799003030782
H          -0.59880957285919    0.42379631763533    2.86371564322613
H          -1.62377946032286    0.93846745466289    1.78796049366764
O           1.00472673367422    1.98446391705768   -0.91338636643522
H           1.70727262406272    1.36496970505493   -0.59427843993619
H           1.47273319972144    2.71196946431016   -1.32774316893636
O          -0.00506974189919   -0.07413201078072   -2.40853818980242
H           0.62910917978158   -0.72626137992440   -2.04151919339049
H          -1.28283055974650   -0.59922270600598   -1.67701994318389
H           0.26829697083150    0.77543498678699   -2.01810098195891
O          -1.04973183758761   -1.67782610992933    1.10801448167865
H          -1.45068839522245   -1.42770977036531    0.19444837431940
H          -0.03038260059723   -1.40183324779151    1.08725059243979
H          -1.39490204023381   -0.95021251072915    1.78481557385820
N          -1.66781207168728    1.71275221854932    0.36416142754749
H          -2.13727550385198    1.10242255297369   -0.29545332275001
H          -0.71974764179376    1.85622899895078    0.02373074805016
H          -2.14079131454616    2.60698539818205    0.35065539245941
