    26
        -50.45091234  Gyration_radius:  2.45451059451 Dipole_moment: 4.327
 S           0.93255080540542    1.40621040826081   -0.78726873553479
O           1.17938619553192    0.08842791844291   -1.32256034273629
O          -0.10413474724568    2.16432027216864   -1.43695286285488
O           0.74994480167289    1.32902158772329    0.67407060222889
O           2.27388323117906    2.23391463817125   -1.00083688046972
H           1.93820779837349    3.09742505446609   -1.21695414528621
O          -1.36345017712133   -1.77879932904102    0.23246665981517
H          -2.11366624916337   -2.08380495843984    0.74509232051022
O           2.47449661815368   -1.99533114831978   -0.21021117755911
H           2.60380359858217   -1.16463227659075   -0.69303191147739
H           1.84395402252756   -2.48766616751013   -0.79453977071147
O           0.43471620520133   -2.52928724725846   -1.79592884752511
H           0.56915958078648   -1.59301689656889   -2.00651258445097
H          -0.34554757327927   -2.54406238561090   -1.22647882322415
O           0.80051503407716   -1.04992867549018    1.39456008177739
H          -0.07555089854633   -1.39533100330522    0.99869136119521
H           1.56777696425707   -1.49658793302620    0.80224241405714
H           0.81774086203824   -0.02929748508376    1.14520560707774
O          -2.05019495270621    0.55053832935172   -0.56638267835989
H          -1.40298327060150    1.10573529106985   -1.03855464511536
H          -1.63897130383859   -0.88783361241054   -0.16460720292400
H          -2.19351519733027    1.01569846902627    0.28839681477467
N          -1.86750057854285    1.85163732129508    1.82130092231265
H          -1.97540616452648    1.53376558104733    2.77633246562525
H          -2.18261365245500    2.81273815717268    1.78044986079630
H          -0.87260097251790    1.84614607054847    1.60201148802314
