    26
        -50.45090880  Gyration_radius:  2.45889890952 Dipole_moment: 4.326
 S           0.43659645710791    1.81409713562558    0.18376553235804
O           0.15014887875384    1.39879215035507   -1.16908854189816
O          -0.69129997871284    2.28460826530365    0.94525641351260
O           1.19112203964784    0.75763990374928    0.88338664416361
O           1.43221189196668    3.04770319884065    0.07949661396064
H           1.11235374624472    3.60606390947796    0.77997482517752
O          -1.18342887968192   -1.84439235206485   -0.50706266529201
H          -1.49388270859934   -2.67758131717054   -0.14927673607021
O          -1.15330233205054   -0.33968544549524   -2.88141062359400
H          -1.40949622300680   -1.00162716195789   -2.22563971214678
H          -1.02226006128644    0.47543648084128   -2.37401086884923
O           1.48289954459308   -0.25643240890830   -2.81697061494296
H           1.41654032374570    0.65747521940367   -2.49855095722945
H           0.55965872979948   -0.44355667764447   -3.12266246764919
O           1.31451618427418   -1.27894382169114   -0.53858757604429
H           1.32869923067574   -0.42882832635231    0.07775917042109
H           0.34128457158753   -1.58920594329833   -0.52648183014379
H           1.47763513258504   -0.91123452391171   -1.52839959940781
O          -1.86337131913125   -0.09796456470485    1.22456367492804
H          -1.58217177824441    0.82397629681742    1.07201818135294
H          -1.51195317496253   -1.12479737107344    0.13015365421071
H          -1.34761306821885   -0.38377051055309    2.01195590816737
N           0.00953123686564   -0.67094372490365    3.11947573593585
H          -0.09753840319276   -0.14516607109026    3.97777668760282
H           0.62087272145800   -0.13499011813525    2.50553222374528
H           0.48224722765805   -1.53667221138305    3.34702693752633
