    26
        -50.46400274  Gyration_radius:  2.43657649808 Dipole_moment: 6.323
 S           0.21435442457777   -0.12764371556126    2.23904075556590
O           0.37308627955918    1.26040302817821    1.87525040293463
O          -1.11946387267679   -0.46194967677556    2.68373378384486
O           0.70705338475840   -1.03308547606712    1.19811282071390
O           1.18062014315367   -0.39757878623678    3.47427448463813
H           0.75390449235650    0.11095879903886    4.15533707642941
O          -1.13887512227762    1.57676822926042   -1.52913850899692
H          -1.83024857895172    2.16814703328004   -1.82871268662573
O           2.25955932732993   -0.10589998275193   -0.72362438734048
H           1.20676469618651   -0.43079716110842   -1.65512083920719
H           1.86690780899102   -0.48971685606833    0.09236606270445
O          -0.87165709553107   -2.29230613279269   -0.40709936721191
H          -0.86408712842408   -3.22544615899946   -0.19072040672736
H          -0.29254441693557   -1.85167092364907    0.27519002032812
O          -2.17858841197687    0.09331557580565    0.34958924486922
H          -2.10077239937589   -0.80941865506884    0.01468871313261
H          -1.85948798187336    0.03732722510350    1.27483890240414
H          -1.50827728963397    1.10923698751319   -0.72997220369426
O           1.33341249557240    2.31119497869684   -0.35518178870153
H           1.05195608896089    2.07364432972511    0.55285447546741
H           2.11983431906793    0.87437834887158   -0.61675900272725
H           0.51121820687585    2.29276893765775   -0.86476079162768
N           0.26651361780577   -0.63365419220699   -2.22640164659308
H          -0.30390407206393    0.23218327030673   -2.16236515152531
H          -0.22408561365709   -1.38791009587651   -1.70661149130882
H           0.44680670818643   -0.89324894023820   -3.18880847074750
