    26
        -50.46400335  Gyration_radius:  2.43648326029 Dipole_moment: 6.321
 S           0.87681620027845   -1.74863806308418   -1.11714337526688
O           1.72184246990464   -1.50681528887381    0.02820500521339
O          -0.09457785093717   -2.79829856804199   -0.90983803255145
O           0.27611560445403   -0.51606299055709   -1.63289165142368
O           1.82444810710464   -2.23920474660203   -2.29768719372973
H           2.09878647890798   -3.08967220534501   -1.97205481918685
O          -0.35603817124220    0.50841343304163    2.39619815841904
H          -0.57471870784057    0.32853329189125    3.31123497856700
O          -2.18361003068016    0.11653004049268   -1.18150957120661
H          -2.68753618224109    0.02879790204660   -1.99142781874762
H          -1.26068972495273   -0.19100278523097   -1.40208434806352
O           1.23652167223948    1.82513341488115   -0.88451363821256
H          -0.03250989407625    2.07814152407639   -0.24582308033987
H           1.02001845344301    0.97223776730021   -1.32378607178399
O          -1.32035992970475   -1.46670170665963    0.98891767668888
H          -0.80035102256528   -2.06594220532409    0.41331343814564
H          -0.61347815759929   -0.31010055633773    1.88891994596221
H          -1.95153087265831   -1.04767313719346    0.38946738088652
O           2.23836887880664    0.76364127127962    1.28521546831790
H           2.22232340884011   -0.12272461718057    0.86783524859925
H           1.79061575419730    1.55630852678958   -0.10200088929695
H           1.47404901878143    0.75449860906194    1.87823308289176
N          -1.01639818572152    2.07675602469763    0.28638591977990
H          -0.84696758280083    1.62705036468269    1.20741759871316
H          -1.63942955082777    1.45884916361457   -0.26983947272138
H          -1.40171018311133    3.00794553658032    0.38925607035083
