    26
        -50.46133335  Gyration_radius:  2.45249060009 Dipole_moment: 4.951
 S          -1.81393662311185   -0.75906647712468    0.78457043462581
O          -0.69105370907081   -1.37396694609637    1.46215325158142
O          -1.58752920804600    0.63381005192387    0.46194459781177
O          -2.22301456820617   -1.53532544142896   -0.38643915280155
O          -3.03389680067878   -0.79455343836106    1.78972033285932
H          -3.09170004251309   -1.71600897809251    2.02222458392289
O           1.66435230358290    1.59197873675651   -0.88609050785139
H           2.60704418419182    1.76155871550840   -0.86841655952971
O           2.41786494479968   -0.30655304204201    2.11642120992436
H           1.99262931895442   -0.94244650677537    2.69511800710172
H           1.80529672351391    0.46431761604109    2.10087198952892
O           0.59003876243459    1.64905298720935    1.73308947235990
H           0.94812753910147    2.03130425294965    0.92045105095935
H          -0.25841708813115    1.25559768631159    1.46387897668311
O           1.31719879663990   -0.99935428395668   -0.18558210254740
H           2.01109752689005   -0.89574688608381    0.50442400455059
H           0.52838916048815   -1.17944178492871    0.37756692415166
H           1.54596663921393    0.64733218368478   -0.63413474943481
O          -0.86467871092720    1.62993092846947   -1.91008082851203
H          -1.30400062641468    1.45818593518370   -1.05187118832244
H           0.02670384750553    1.93252417906467   -1.67242064747099
H          -0.64201192651625    0.14092288176017   -2.26197733102443
N          -0.50342281796269   -0.92826451288273   -2.20400661703150
H          -1.27493040633868   -1.26555235880896   -1.53495201784265
H           0.39174745710843   -1.11474219287475   -1.72917829835367
H          -0.55786467649570   -1.38549330541416   -3.10728483534222
