    26
        -50.46400408  Gyration_radius:  2.43634231228 Dipole_moment: 6.315
 S          -0.84500744069763    2.07306563756105    0.25205849770502
O          -1.81156418936654    1.91418157819780    1.31446297190790
O           0.52240374239140    2.11137120230101    0.71385144857398
O          -1.03655835711519    1.11028166625627   -0.83530914666632
O          -1.14518477093566    3.48216007886293   -0.42396019402160
H          -1.11077786061669    4.05984739662981    0.33078815760491
O           1.44730200975551   -1.44745069918528    1.38989040273068
H           1.78522127056669   -1.84134966782501    2.19494962296146
O          -2.12902696305895   -1.19742043325634   -0.46548058997920
H          -2.99847950658183   -1.20546689449886   -0.86747676311148
H          -1.78052821129008   -0.27145468771171   -0.59186606414154
O           1.05600806161964    0.14731502765516   -2.12126001132493
H           0.71134616755187   -1.15113929824867   -1.59641434922653
H           0.27963301288826    0.65574900863410   -1.79541836977870
O           2.60189125173386    0.68141565855299   -0.08136546677823
H           1.95842598177944    1.34558872443812    0.24267530723355
H           2.45312730437510   -0.08387315669447    0.49150504271452
H           1.79048817611787    0.41144331444968   -1.50270255376483
O          -0.89814242480968   -0.45733281348764    1.96375040452600
H          -1.50719021752263   -0.93285442670956    1.38387767349419
H           0.61646230142936   -0.96302778439302    1.65202938432920
H          -1.15983389689008    0.48287822901860    1.87200799493200
N           0.38237749984453   -2.05665080254075   -1.02721638544702
H          -0.63639741663087   -1.93496559513240   -0.86428998036162
H           0.86787242917376   -2.01402083589580   -0.10975767852135
H           0.58613202628563   -2.91829044704006   -1.51932934559947
