    26
        -50.46400330  Gyration_radius:  2.43647598623 Dipole_moment: 6.320
 S           0.49556609079050    1.89436691417914    1.11371091833170
O           1.06892634153136    0.79849509855114    1.85845208055365
O           1.43717929091397    2.55859042195117    0.24156285229396
O          -0.73916689035726    1.51043272003608    0.42516262679499
O           0.02304569808330    2.98066712608512    2.17621398575236
H           0.85907187121844    3.28408244574128    2.51323770671594
O           1.26659485491480   -2.05400426893807   -0.55056650422444
H           2.02710173661447   -2.57723411058607   -0.80601626938152
O          -1.97835456666553   -0.71951663830100    1.09957148780145
H          -1.64419005046306    0.19971670210653    0.99639371734744
H          -1.68949277592099   -1.21436508184485   -0.22466561462301
O          -0.81893700273986    1.03131065611083   -2.10845730484022
H          -1.28811003453237    1.73971482980467   -2.55065031460178
H          -0.77235600932670    1.29562152119583   -1.14777231473847
O           1.78881328668843    0.41255618107301   -1.22524408904960
H           1.82073199013441    1.17810913192722   -0.61387734518035
H           1.53008744386871   -1.10336402827535   -0.69339376031526
H           1.09415391384249    0.63991702806263   -1.85696804215148
O           0.24120027243720   -1.70591814346932    2.06838478525963
H          -1.26765810669258   -1.17360661935374    1.62906378144792
H           0.67522619664918   -2.04752393999578    1.27409619866378
H           0.60838398036409   -0.80274996577972    2.16645652061693
N          -1.29557898344308   -1.49228127936329   -1.23413414771996
H          -0.34550337929252   -1.88205629918067   -1.07717601467453
H          -1.20080505871813   -0.60000369639476   -1.75769469345938
H          -1.89593009989947   -2.15095671533428   -1.71569023662943
