    26
        -50.46400379  Gyration_radius:  2.4363600327 Dipole_moment: 6.317
 S           1.03002754805069    1.24072597962723    1.57281960351726
O           0.43839156960042    2.15693373679441    0.62674816071859
O           0.22352219495943    1.02368637755461    2.75214936447051
O           1.45615438205089   -0.01036763598355    0.94106430762920
O           2.38841748181718    1.90294643543986    2.07155592052511
H           2.06074526339873    2.64711395421260    2.56494140650597
O          -2.16403778617440    0.17912385597869   -1.18621807796622
H          -3.09818934711546    0.36371883403039   -1.29015080256230
O           1.66612989779029   -0.15115023158209   -1.68535608893673
H           0.59824683632894   -1.12090647893982   -1.66308350838011
H           1.79433124294844   -0.04137319227743   -0.71640982689533
O           0.10721221958036   -2.19905148609538    1.15535041496931
H           0.64462531825110   -1.35873849222385    1.15388606641267
H           0.58463512198467   -2.81219414776389    1.71548118531867
O          -1.72591819134055   -0.06364223532456    1.37507209211397
H          -1.98670432831529    0.21750301811531   -0.20600637608963
H          -1.39573467114854   -0.96564138997659    1.47783096571036
H          -1.10706796485197    0.48293834562671    1.90350017344449
O          -0.00405755158805    1.84121228182793   -1.96268052658523
H          -0.86132755261499    1.39888180473518   -1.88932410981719
H           0.18578010829389    2.13808044951093   -1.04832190169254
H           1.16953694730762    0.66916107902216   -1.95439220515113
N          -0.30020310806909   -1.76513397928584   -1.49130630788704
H          -1.12122616706975   -1.12902686365613   -1.51329426965802
H          -0.20143715495426   -2.13859737503248   -0.52679499340508
H          -0.38185232906632   -2.50620262431714   -2.17706067629203
