    26
        -50.46133226  Gyration_radius:  2.45109581384 Dipole_moment: 4.989
 S          -0.53496659698012    2.04442012443292   -0.04545219790576
O           0.51738442928404    1.49899391961532    0.78538628052684
O          -0.53033688944182    1.50864292287020   -1.39133577560219
O          -1.85200747304050    1.91278949002560    0.57845467293373
O          -0.25343505124742    3.59541736259584   -0.16656892790160
H          -0.92292819558894    3.88622026238643   -0.77794827545362
O           1.16862924464296   -2.08714694080902    0.61536025397715
H           1.47024919601237   -2.90930573200984    0.22708140808769
O           1.19308002308698   -0.94166538203752   -2.84232379180887
H           0.86673893418736   -0.19145065509713   -3.34328090035522
H           1.74594121895163   -0.54324996260149   -2.13172456853023
O           2.37293506338380    0.13525604889384   -0.65961945129010
H           2.33923935131715   -0.63282363110704   -0.07330426178787
H           1.76796399947729    0.77961050065461   -0.25235825899642
O          -0.72826547866672   -1.08405183723812   -1.03266763575904
H          -0.18125230648155   -1.34224577612664   -1.80890440037591
H           0.47624444341598   -1.73065066990423    0.01235824096956
H          -0.72250333785234   -0.10296484476990   -1.12830631143582
O           0.27586795236441   -0.44470885991016    2.60322448968785
H          -1.12815026498160   -0.60640057616632    1.97719721416946
H           0.79584454132289   -1.12850456358970    2.15075769831230
H           0.49438621433694    0.38452008893883    2.13030428248729
N          -1.98304355728989   -0.54915922939186    1.32002262879728
H          -2.83648991415403   -0.89114666621359    1.74731116508867
H          -1.75791424789252   -1.05179782537957    0.44933541112481
H          -2.05321130811769    0.49140240194890    1.05700102101821
