    26
        -50.46133308  Gyration_radius:  2.45205643864 Dipole_moment: 4.972
 S           1.81708674780976    0.31488868671417   -1.03741067564107
O           0.57411903814688   -0.06922441281199   -1.67221043399002
O           1.64564253539272    1.33996916913913   -0.02851322326972
O           2.54451416631822   -0.83967388620188   -0.50926955964575
O           2.72834221548563    0.93318638751368   -2.17188980389098
H           3.49476957192790    1.22945447501053   -1.69096735757276
O          -2.37091046214126   -0.53663107699975    0.42948478592042
H          -3.09797607978548   -0.27399699404880    0.99523931065900
O          -1.45181941841755    1.65394317136328   -1.11187779772761
H          -2.05865032571103    0.94140776417230   -0.86943592364633
H          -0.64055210837179    1.19718613875220   -1.39543125978680
O          -1.06978784850106    2.73404336948445    1.33774052308732
H          -1.27503051311812    2.46829404823566    0.41203562585458
H          -0.24755253924260    3.22372017552246    1.27224527975334
O          -0.09464673779259    0.29448400800325    1.63499127891804
H          -0.54002314753294    1.13849962718073    1.87480063525964
H          -1.54659976987810   -0.23425916699317    0.87556556396402
H           0.60527589770083    0.62712009195248    1.02574037741937
O          -0.90105478656638   -2.22954609422978   -1.12609208192117
H          -1.67389877976848   -1.78227044344903   -0.74497919093094
H          -0.39833558630575   -1.51696462310691   -1.57162301777640
H           0.05715423254230   -2.35337239789237    0.08096829778031
N           0.79213549050307   -2.15192950435459    0.84578596865278
H           1.07942826264293   -2.98352927102397    1.34961040329280
H           0.41611293409898   -1.42839512696907    1.47557693886847
H           1.61225701061064   -1.69640411496213    0.31991533633435
