    26
        -50.46133310  Gyration_radius:  2.45202653334 Dipole_moment: 4.970
 S           1.83464557725565    0.56421190280230    0.89071070426259
O           2.01585462275620    0.38768013364255   -0.53553256651932
O           0.55358993782391    1.14551365198187    1.23178043460706
O           2.08590894848320   -0.67927232997830    1.62001731448914
O           2.93627144996624    1.59152644075207    1.37117633580148
H           3.74498890177651    1.19579444193248    1.06151868578188
O          -2.41570955691462   -0.07577105434366   -0.50238217734217
H          -3.01384410008271   -0.19902442302654   -1.24047465991681
O          -0.73264266955653    2.15879423510856   -0.93822179898166
H          -1.56029039597178    1.70904898134766   -0.72012173137524
H          -0.13200450244277    1.93194787219108   -0.20689090513639
O          -0.05204629423846    0.74212324011365   -3.13915593887763
H           0.89254226864155    0.87388048218664   -3.24197414351819
H          -0.31505751135946    1.37250899584210   -2.42992300663722
O          -0.02456216532157   -1.10281256703707   -1.24574273673235
H           0.76308922492500   -0.60042478782137   -0.93124147356806
H          -1.54971708834551   -0.45492540796562   -0.77848595666226
H          -0.14341057048567   -0.70918307986595   -2.13976561218827
O          -1.61176617766069   -0.15496939706858    2.10407934317357
H          -0.87567624620083    0.47952289051114    1.98314093207780
H          -2.18207574329587   -0.01864207386331    1.33029012705817
H          -0.79284691098139   -1.40711387811567    1.71452832521346
N          -0.05420785553982   -2.07302368483094    1.29411058266767
H           0.88781530321801   -1.59596001268969    1.49823919372920
H          -0.16154057171156   -2.07222068802049    0.26939999775544
H          -0.09730785462785   -3.00920987378338    1.68092075085666
