    26
        -50.46133275  Gyration_radius:  2.45603891791 Dipole_moment: 4.865
 S           0.79973211455360    0.81219786509304   -1.79433190663399
O          -0.38210868144284    0.02943729157321   -2.09128129966624
O           0.69901093089022    1.53792461910886   -0.54583156796721
O           2.01296471930800   -0.00329169034713   -1.86135972442912
O           0.93332614213171    1.89902746538308   -2.93508763586745
H           0.94864206211336    1.37390052725845   -3.72910093157852
O          -0.71226591534463   -0.17304903877016    2.34885266025356
H          -1.40573664833673   -0.56668855935688    2.87979067518843
O          -1.83743781115043    1.57715574312744    0.42891845015691
H          -1.01181193007999    1.65481060476668   -0.08064672363380
H          -1.55089394193959    1.31645746707405    1.31476669606771
O          -3.15659921152016   -0.68456288640314   -0.23981628531196
H          -2.80135648802591    0.20407455500840   -0.00595610487916
H          -3.26676800024571   -0.66129769248118   -1.19219413691428
O           1.76503776355703    0.83086703197044    1.80074049443684
H           1.47989111331795    1.31990213529313    1.00164407995945
H           0.94226608005895    0.64855156164243    2.28272208688799
H           2.03745294168495   -0.50330175712230    1.06613378367431
O          -0.66004950359091   -1.52716865230271    0.00235228519477
H          -0.69566075438544   -0.67063884188562    1.49949831657337
H          -1.64362083879232   -1.54793465368031    0.01409799683187
H          -0.49718511372320   -0.97536321999093   -0.79835799150352
N           2.02644868551097   -1.31480936565910    0.35454753222648
H           2.13125031927656   -0.83669158634703   -0.60288595045806
H           1.08834121239155   -1.74152289175350    0.36304344447600
H           2.75713077377665   -1.99798602120664    0.51974173690724
