    26
        -50.46400433  Gyration_radius:  2.43686346132 Dipole_moment: 6.302
 S           1.33104203211648   -1.71524088251373   -0.60648157186742
O          -0.03083703842861   -2.18413833849344   -0.70956264213589
O           1.45051057973564   -0.28606647562127   -0.90479816436850
O           1.97769244221669   -2.08137739620201    0.63294310292752
O           2.15165711038548   -2.42223778609593   -1.77206927991953
H           2.10712376261533   -3.33287232381796   -1.50157829469472
O          -2.04121543249926    0.18725000193700    1.38552069237152
H          -2.63104478585487   -0.00287483190452    2.11586209459882
O          -0.53173799978693    0.98308154612855   -2.09703882532168
H          -0.67827189034989    1.76724089759224   -0.89466643578521
H           0.27689753602761    0.47888430241959   -1.85373176628975
O           1.75148043869731    1.49101549855301    0.94103540941791
H           2.64445963692698    1.83600238014136    0.90634750197893
H           1.71069801729177    0.77504389028256    0.24768761845111
O          -2.23011484151749   -0.81812438231762   -1.25669743601725
H          -2.41793222786544   -0.51576502751013   -0.35706442338346
H          -1.26789920780789    0.32242926184174   -1.98096005370795
H          -1.50189810322888   -1.46347137369460   -1.14045523989395
O           0.32530344825361   -0.65737232194895    2.08717919206881
H           0.87692449787736    0.13555539776140    2.07137127643388
H          -1.17589625168775   -0.25284638111939    1.61285136807085
H           0.85494091783367   -1.33022356340262    1.60946540292881
N          -0.73714094604679    2.20633968110389    0.13255273054536
H          -1.36215123314311    1.58203432033992    0.67922539059346
H          -1.07415536435049    3.16160056164150    0.12625297914670
H           0.22156492258987    2.13613333489937    0.52680936385135
