    26
        -50.46400455  Gyration_radius:  2.43653909601 Dipole_moment: 6.308
 S           1.31438779660442   -0.49991974943246   -1.76103236640790
O           2.18114896073996   -0.32963204345987   -0.61883778539980
O           0.98614873867902   -1.87941744603567   -2.03889395650130
O           0.13022604392776    0.35971588976064   -1.69262137185253
O           2.11006154641448    0.04057255869037   -3.02867151191426
H           2.82092504787794   -0.58901328330321   -3.08228827158796
O          -0.03706870500868   -0.69899099575147    2.37345880261191
H           0.04384531175712   -1.29790625033447    3.11657304115877
O           0.06515992799292    2.37346637415425    0.01082107699412
H           0.16895619852127    1.76950497508316   -0.75850657021445
H          -1.01636739152357    1.69634355541544    0.68466594539176
O          -2.19550857330772   -0.54105768538694   -1.03304914302032
H          -1.30196053867281   -0.23846432419557   -1.35712071033593
H          -2.76288859150990   -0.54956354424655   -1.80483091201183
O          -0.28073507114097   -2.17832951911506    0.23770497050720
H          -1.14260294247379   -1.93519960324029   -0.12474034245671
H           0.32000724798094   -2.16672907962195   -0.53691085405947
H           0.00100991929885   -1.27084894975682    1.55777126822830
O           1.86748640555583    1.21280039288195    1.50811799180480
H           1.33256402319620    0.59900543411191    2.03066906802337
H           2.16543066052134    0.67419570821677    0.74566296395531
H           0.83117853297946    2.13933717864178    0.60253414708019
N          -1.75821720415820    1.00304625024225    1.15402930210727
H          -2.13738531088168    0.42548929062171    0.37809489070906
H          -2.49025284883032    1.49763615209153    1.64964923829148
H          -1.21554920453484    0.38395873397130    1.78775109890140
