    26
        -50.46903399  Gyration_radius:  2.43070144707 Dipole_moment: 4.648
 S           1.13249829052902    1.28452864616434    1.15921139681282
O           1.73175537288216    1.30625409544864   -0.16419164249124
O          -0.31841326285687    1.50029642873921    1.09408495574341
O           1.46053548140578    0.12399162152706    1.94562440015360
O           1.72898659320081    2.55665725943821    1.89290336108775
H           2.20529111854710    2.97845193297408    1.18592546578945
O           0.10349760173599   -1.93292913042977   -0.70293389348691
H           1.06112254647612   -1.99587942878289   -0.50621447987992
O           2.61697750385945   -1.39988256287994    0.08499579488009
H           2.91238354232400   -0.69421640032967   -0.49647540859227
H           2.29262718819332   -0.93856304555506    0.88225742148730
O          -2.79444569239923   -1.28198594090324   -0.46855258454845
H          -2.48462275262647   -1.30478857638657    0.45061312623986
H          -2.21373697274790   -1.88696220535024   -0.94377080497264
O           0.40689799130370    0.24833656059698   -2.22037342124966
H          -0.92430963708063    0.81705207783709   -1.73793547101586
H           1.01271886930790    0.69701975809037   -1.59393062838908
H           0.32538763171942   -0.66477685813731   -1.85943990122028
O          -1.05068711131060   -0.98516593070903    1.64612852918970
H          -0.44151179866894   -1.30334160962403    2.31772425220610
H          -0.82501278406266   -0.03661045744230    1.54904220742687
H          -0.29148401212369   -1.66464024537433    0.14587653805833
N          -1.74635298949338    1.10192300150531   -1.09147809577838
H          -2.30930104659324    0.23386882464938   -0.89365049137966
H          -2.31707562441864    1.84545616819221   -1.47573201332154
H          -1.27372605710899    1.39590603673946   -0.19970862275959
