    26
        -50.45363079  Gyration_radius:  2.49741968086 Dipole_moment: 2.020
 S          -1.40600510649084    1.17091809260281   -0.06821353561823
O          -0.94729037497665    0.61030152871305    1.19492996054121
O          -0.46314632818486    2.17996219820587   -0.55001128362961
O          -1.72366937501444    0.16345312704288   -1.05059587661539
O          -2.74301920843443    1.94912135862656    0.23991526729632
H          -2.42003531027288    2.66295105289921    0.77862499547975
O           0.58133476702356   -0.98098783272178   -1.69223047528160
H          -0.34479438699596   -0.66212825836342   -1.70272907165398
O           3.17865492413534    1.36454058105029    0.35422503387892
H           2.60651718021639    1.02234424932765    1.09531404716503
H           3.45262883866999    2.24724856681136    0.60810243401044
O           1.53775456012792    0.49539098403660    2.19366123634588
H           1.58136890296364   -0.46631173719801    2.20688821294359
H           0.62174254164381    0.69755336019954    1.91885263360718
O           1.59963580923668    1.27721434330228   -1.63451435805819
H           1.27627770068491    0.25438746950172   -1.73197337446427
H           0.75815919815672    1.74104781054233   -1.25154486597262
H           2.30533944686083    1.30951146625574   -0.88674439839692
O           0.21919674738808   -1.78813859812986    0.77675284352066
H          -0.25262997897914   -0.96665075406463    1.01138802336118
H          -0.50779037486956   -2.39964240694344    0.54101320838472
H           0.66250197514228   -1.40089819028995   -0.79377972772374
N          -2.15703205721284   -2.66223859410126   -0.24825379593778
H          -2.96666091364215   -2.85878533609605    0.32698822355907
H          -2.20970897819009   -3.26024483633901   -1.06385743132239
H          -2.23933021906486   -1.69991965491509   -0.57220790548425
