    26
        -50.45363110  Gyration_radius:  2.49743468445 Dipole_moment: 2.024
 S           0.15748645594082    1.73438520997409   -0.56382366452301
O           1.40867317147925    1.34554788017430   -1.21399041422009
O          -0.93504363550465    0.88562207879074   -1.01779707948268
O           0.25393300333005    1.80919609049576    0.87356387963158
O          -0.15510869137111    3.19202260995748   -1.07932524015604
H          -0.05817998687153    3.07906530894046   -2.01841151311464
O           0.98298353471013   -0.60926898791328    1.68149908361874
H           0.81958317146708    0.35517377787777    1.63030208691083
O          -0.84395158962925   -1.58828648362389   -2.04601743221953
H          -1.34934518433425   -1.99642404810262   -1.33541055699326
H          -0.86408323544403   -0.63170178374889   -1.84615208952652
O           1.62551897084642   -2.42922424308087   -1.88409929082464
H           2.00189101361273   -2.38487611475389   -2.76448078911094
H           0.66755022219161   -2.16832891630688   -1.97293650664583
O           2.51463771771349   -0.68471902863564   -0.26469288473725
H           2.15962961563773    0.19008755886219   -0.68716450605835
H           1.92584601104870   -0.76361811026151    0.63401857522609
H           2.22128615633179   -1.44260587596522   -0.89531709593742
O          -1.46289166227892   -1.01452820165266    0.82589635942011
H           0.10430660110457   -0.99840517120179    1.42355048350790
H          -1.87594892391092   -0.54590480164233    1.57938157114319
H          -1.37850458096356   -0.31393489604123    0.15168947177187
N          -2.02245470587006    0.98999653680196    2.59499947911789
H          -2.86383035022109    1.55049341304940    2.54044958818608
H          -1.29204162288076    1.48607188894770    2.08687760532990
H          -1.74194147642892    0.95416429903210    3.56739086977517
