    26
        -50.46903564  Gyration_radius:  2.43108111996 Dipole_moment: 4.431
 S           1.53186758103372    1.38505283552304   -0.09067033356529
O           1.20197971182596    0.62739854425631   -1.30271217179346
O           0.37811453237956    2.10017298432996    0.42766726961900
O           2.20349337133626    0.56158690722412    0.88237191307312
O           2.53543509761477    2.52178977938435   -0.55319659509416
H           2.07313116371059    3.30631577148035   -0.27863656792543
O          -0.93826438853382   -1.18216168457878    1.40444230693602
H          -0.55963128002952   -0.66670483458557    2.14650554384102
O          -1.20344292660521   -2.60419918493911   -1.20364051643862
H          -0.25374457511169   -2.64353249124339   -1.00898210504835
H          -1.63442588592713   -2.56538312665502   -0.34238069211493
O           0.42126935943064    0.61597638993679    2.86684891059634
H           1.19058400044100    0.55768439548131    2.26773407639380
H           0.01289581689795    1.45865563141062    2.65129509222583
O           1.23961235222616   -1.78765368237858   -0.21632558062704
H           1.32457895950140   -0.92719777801249   -0.67741359593339
H           1.96881900796843   -1.79105109680796    0.40951120881461
H          -0.15903084703056   -1.44393811876493    0.88203473481884
O          -2.03181014229169    0.97399188964692    0.26210115350731
H          -1.82763428464815    0.16621704393403    0.78834319740593
H          -1.23828552910543    1.53799677387535    0.37657475939065
H          -1.75915856500343    0.42858004682615   -1.13583999232202
N          -1.26206264212016   -0.04101687039513   -1.97714183478086
H          -0.26051032717039    0.26065077893556   -1.87553571737476
H          -1.64724751113747    0.23370839246747   -2.87287700461853
H          -1.30653204967875   -1.08293930632997   -1.83007745898714
