    26
        -50.47000603  Gyration_radius:  2.46329912423 Dipole_moment: 2.725
 S           0.00807602104442   -1.95253406305592    1.04756400129270
O          -0.86971755092287   -2.75828219934425    0.23460014514767
O           1.27720534895868   -1.63816570611403    0.43762510295296
O          -0.63857576762041   -0.73649355303851    1.56509565453308
O           0.30277138246892   -2.82441995629343    2.34842706423027
H           0.12181178851686   -3.70088762437166    2.02613704662777
O           0.79612498207742    0.92024450280850   -2.21331322326290
H           0.93463353279045    0.94480861795369   -3.16082512958652
O          -2.46594736398035    0.38973097161657    0.04986804746142
H          -3.34462972989584    0.17976731945417    0.36835106820334
H          -1.83443680632501   -0.06291013889973    0.65897690771249
O          -0.73583878818576    2.46958508143187   -0.53290778644844
H          -0.22103898497576    2.07875834025092   -1.26316837477706
H          -1.50157967718658    1.88387019424430   -0.41149266995228
O          -0.91997979362210   -1.00944109120868   -1.76923275011661
H          -0.79287314982987   -1.76137940109154   -1.16149470571025
H          -1.65495822387181   -0.50840765719094   -1.38286333651534
H           0.22963169219827    0.12104398785899   -2.04219287879422
O           2.66488654007390    0.50646401350708   -0.24661889847562
H           2.19777026543944    0.71063187298750   -1.07710247031017
H           1.69072400652710    1.16048892281306    0.78102140441436
H           2.37747115254669   -0.40370385597287   -0.03109298197473
N           0.82178649945112    1.45118665971986    1.34130045321129
H           0.29281063062259    0.56477053082874    1.55383212273894
H           0.20622566833059    2.02168839763787    0.69079012095614
H           1.05764633527491    1.95358581369474    2.18871605657941
