    26
        -50.47126110  Gyration_radius:  2.42915920609 Dipole_moment: 4.313
 S          -0.60299996084200    1.59503394848028   -0.86584044840940
O          -0.30721946965537    0.42740182375996   -1.68944920890086
O          -2.02787202250469    1.69343271257255   -0.58515558875424
O           0.21731189367011    1.64834130804783    0.32323567935537
O          -0.23549766476351    2.86391926627938   -1.73098650867983
H          -0.95584257708451    2.89556859624836   -2.35139720845620
O           1.20531366708446   -1.71185000294665    1.35978321877153
H           1.82025228118376   -2.34561527108165    1.73001736783626
O          -0.84636322708379   -1.87452446073737   -0.44643220445830
H          -0.08181168716062   -1.97104024340049    0.15244735151619
H          -0.62749281343182   -1.11997736682591   -1.03119123876009
O           2.15997072701733   -0.23387613449307   -2.43130466977896
H           2.08052617178645   -1.10670164859427   -2.81989532807510
H           1.24587212171180    0.07178737263661   -2.25953945559755
O           2.50248128867858    0.22156729906342    0.22835694355687
H           1.76500166842883   -0.99793379574155    0.92594004759676
H           2.61277886882717    0.05248395593479   -0.72622532930911
H           1.79340151765585    0.88884575019026    0.28340610313789
O          -0.32158832618507    0.22694625090559    2.56519601052761
H           0.25995554542134   -0.52593384149494    2.34809587710403
H          -0.03918067293011    0.93242609341830    1.95475302885610
H          -1.67177299968433   -0.12215483886048    1.81499897326170
N          -2.36211825835566   -0.33573483793633    1.02851068240957
H          -1.91477987241004   -1.11050974628884    0.44706589533573
H          -2.38362516636213    0.51870072832418    0.40610223290807
H          -3.28470103301111   -0.58060290746269    1.36950778701209
