    26
        -50.46983304  Gyration_radius:  2.43234243012 Dipole_moment: 4.337
 S           0.76656900709018    1.65600373002906   -0.95048562014625
O          -0.52166415753167    1.13096106208585   -1.43216776739655
O           0.73842947604254    1.90536409392275    0.46812635289129
O           1.86633839154859    0.83408844048851   -1.40837234955901
O           0.94836569494307    3.06104770065641   -1.65874477379202
H           1.34265812611911    2.81505340092540   -2.48899453889665
O           0.65745665586480   -1.58563658825844    1.19795714830036
H           1.54151074907902   -1.17414293096545    1.29087601137495
O          -1.94277580284613   -2.39717706422937   -0.12695599138385
H          -1.30577614951113   -2.30757666867515   -0.85278947101360
H          -1.41928440619895   -2.65746663015146    0.63873122344868
O           2.78993204204176    0.04368717244708    0.98480263138502
H           2.53320063153358    0.82343591845106    1.48457252583450
H           2.60245874052037    0.28086846311996    0.05740536234612
O           0.21250086773617   -1.39826529500163   -1.53582489173928
H           1.11537055564582   -1.38905923290665   -1.86503718281648
H           0.50874249231740   -1.58873341097372    0.23575539123752
H          -0.07667934862779   -0.46288027895284   -1.59907938445922
O          -0.65958059131330    0.48887602818512    2.24630768541540
H          -1.77275855406363    0.37452544817062    1.21390975736862
H          -0.18289544649621   -0.35632695681106    2.07158077602396
H          -0.11826951157083    1.16066536810435    1.78632970934638
N          -2.31746276144043    0.22959738223307    0.28667930365678
H          -1.71282649758511    0.67560565571066   -0.45032659173302
H          -3.24269942909557    0.64196319856806    0.30546308949814
H          -2.35086077419448   -0.80447800617480    0.10028159481213
