    26
        -50.45363129  Gyration_radius:  2.49763675464 Dipole_moment: 2.033
 S          -1.74974144744111    0.48953879971466   -0.22359258536054
O          -1.27117450855165    1.82635330830747   -0.57465448545953
O          -1.12396953630814   -0.51286318481233   -1.07429404284324
O          -1.63519524906212    0.18674536253159    1.18214044298525
O          -3.28853970014075    0.48437344460517   -0.57023377633377
H          -3.27903392286692    0.83897083010851   -1.45235263628332
O           0.94311949930580    0.40652701500414    1.76336127107300
H          -0.03377559532113    0.36470902629939    1.82284256989033
O           2.38962291534412    1.82299243185521   -1.74858283084719
H           2.29374344055256    2.43191495790406   -2.48253961995614
H           1.98685367287419    0.95992652490652   -2.04292434043068
O           1.19345097052889   -0.40241757671927   -2.41733116448525
H           1.60798760783144   -1.12538375282406   -1.93525642746291
H           0.27536487073906   -0.37627613679930   -2.08285548652535
O           0.88932293345538   -1.73262105615949    0.24731646415622
H           0.13180233634570   -1.38995126097116   -0.26385902334762
H           1.16862380693414   -0.40131027498901    1.22785239364093
H           0.46049718065287   -2.28846294711166    0.92945463959636
O           0.99897403233751    2.40323586774358    0.29751613388741
H           1.10154122052535    1.58216110565738    0.98766932517087
H           1.62450885961829    2.21939213402499   -0.49801816912114
H           0.03706115110002    2.27427161896412   -0.06011398257529
N          -0.94750887071001   -2.55337252972683    2.09450883796463
H          -1.39133577473504   -1.66179233994601    1.88037518391923
H          -0.75804754425612   -2.56456906298957    3.08922464369804
H          -1.62415235919389   -3.28209231430532    1.90434665517452
