    26
        -50.46983298  Gyration_radius:  2.43241674319 Dipole_moment: 4.338
 S           0.39502914342479    1.58802429820399    1.24718829412691
O           1.31077152517010    0.51896271528234    1.55377189171637
O           0.34067067803682    1.85504585075891   -0.19961388974792
O          -0.93498628373432    1.43427387573715    1.79701491025183
O           0.98802105258065    2.90230461716515    1.90297300605073
H           0.20821862897132    3.43560132063746    2.01570390332967
O          -0.85447772750297   -1.90798704258458    0.08734258212131
H          -0.90012718943443   -1.86377227209314    1.06486515678297
O          -0.96023822238749   -0.93911079106088   -2.78095675683476
H          -0.99837976207952   -1.77769297213641   -2.30831631341888
H          -1.54728568236162   -0.34292655229879   -2.29048873867719
O          -0.71779970080758   -1.10083034425572    2.65181226167082
H           0.22469711213051   -1.09223864950747    2.83970683638058
H          -0.92901055831818   -0.17188936141605    2.44215694244096
O          -1.90444865707174    0.55194306243091   -0.65625480187874
H          -1.27859267953341   -1.07908071685944   -0.19728309146606
H          -2.46856754053388    0.74222385087014    0.09818482532011
H          -1.11777177394747    1.12186647499689   -0.51894982666057
O           1.79463173398280   -1.58033673420070   -0.02171367069125
H           0.87012526916445   -1.92157450535546    0.00930513628708
H           1.68546445366021   -0.65081127021679   -1.22246338502054
H           1.81364932748454   -0.89659587602863    0.67694535065277
N           1.35250859888766    0.11569092619627   -1.91468545175836
H           1.03646648288677    0.90994555207387   -1.30068239188402
H           0.51138099484227   -0.26116144316782   -2.42021265481317
H           2.08005077648763    0.41012597682484   -2.55535013428256
