    26
        -50.46983302  Gyration_radius:  2.43232410824 Dipole_moment: 4.336
 S           1.27973973092818    1.17283848573528   -1.10416074632261
O           2.00433597507120    0.02989496462317   -0.61009832809467
O           0.00906076845176    0.77611386482678   -1.73295775097409
O           1.07371551618576    2.23330003517666   -0.14093748976303
O           2.15397077876886    1.80257442453892   -2.26517631711858
H           1.85650738008320    2.70627209669177   -2.26993298502164
O          -0.36815834294601   -0.49401473263716    2.00038405933642
H           0.44963392820089   -0.03540643921330    2.28399966296491
O           1.91076794567244    0.93803112433309    2.05584581998289
H           2.55209873125137    0.36376299107427    1.62851095810928
H           1.62588039278459    1.54693752992321    1.34904615713660
O          -2.88541227884758   -1.02578690395138    0.40024342280641
H          -2.50188520832488   -1.30011429815416    1.24030952303504
H          -2.76033644052653   -0.06467844273223    0.36458198430391
O           0.88924960426134   -2.19058885664098    0.36439649015558
H           0.44296773921691   -1.73503857898667    1.11641594601008
H          -0.19428051863879   -2.05714253766175   -0.69650999402104
H           1.50324350646677   -1.51497050950088    0.01460670314177
O          -1.53349133908069    1.38105490438460    0.31703262062356
H          -1.01224201508603    1.22668015157408   -0.49964149231446
H          -0.82582217334723    0.17266254638186    1.45814010959882
H          -1.17210235054859    2.19538611886811    0.67745222068210
N          -0.95591068807379   -1.65699511770678   -1.35792253355587
H          -0.58575722685027   -0.71709106977377   -1.65341111893261
H          -1.82152325354839   -1.50127872169592   -0.78220092553489
H          -1.13425015149642   -2.25240304947565   -2.15801598624507
