    26
        -50.46564193  Gyration_radius:  2.49606843186 Dipole_moment: 0.758
 S          -1.06377503532443    1.90102816101727   -0.29265888680215
O          -0.83764223975829    0.92482005830377   -1.36055187277295
O          -1.56912991008116    1.27122619806182    0.90726864682986
O           0.07908060174022    2.75559351720231   -0.05601781270327
O          -2.21652785957656    2.84181310390717   -0.84637951652959
H          -2.17649054065663    3.54980690436125   -0.21371061721920
O           1.23229894332094   -1.09552110901099    1.42406066540298
H           1.55916614239661   -0.36447481330430    1.95659826726716
O           2.17005407527599    1.63041746802381    1.05746596346942
H           1.35873854182097    2.07666188509901    0.71962330930509
H           2.77930280289680    2.33562182002588    1.27943098013150
O           0.95767936823646   -2.67434194796819   -1.21590395916468
H           1.39597894205824   -1.83042128091512   -1.41944424819595
H           1.25196343497295   -2.90927930513018   -0.33052457146363
O           1.63685374594724   -0.02081179955500   -1.07566053491547
H           1.35237599610702   -0.77760593841582    0.50761181735163
H           0.78722407339782    0.40804102637253   -1.30172695542096
H           2.13014468641915    0.64090989617478   -0.56585352631985
O          -1.44565949414108   -1.25012049914223    1.69291930780513
H          -1.58258536223620   -1.56875133395749    0.20525568940451
H          -0.47193961080721   -1.31148387967576    1.79432785824333
H          -1.61368836399961   -0.28852053760912    1.60457042270661
N          -1.48024641082169   -1.58254774672051   -0.87375106434675
H          -0.61209469687240   -2.12251972130032   -1.11146922327545
H          -1.32369092927496   -0.57541325301990   -1.14994330182893
H          -2.29739090111040   -1.96412688314248   -1.33553681698472
