    26
        -50.46983303  Gyration_radius:  2.43242450587 Dipole_moment: 4.337
 S          -1.60271179174761    0.32327896860994    1.24927178925393
O          -1.80392060287359   -0.57892294126078    0.10342285541377
O          -0.46826108341916   -0.07495144843412    2.04297361430010
O          -1.60103227434333    1.70746904562181    0.82628865735596
O          -2.88531973837956    0.14819853597314    2.16203482970655
H          -3.49461768406741    0.76238043141143    1.76614405435735
O           1.81339884582745    0.90759891586897   -0.51776500359584
H           1.71790396730469    1.55722842114524    0.20914973803111
O           0.97817495290368   -0.92837234020473   -2.77840720287111
H           0.30674022991731   -0.22879295750080   -2.75863634342719
H           1.78586881742019   -0.51338074817219   -2.45677115440042
O           0.89907825325361    2.34331968957105    1.56781925415984
H           0.96946657763766    1.73792171569733    2.31095492905230
H          -0.03431030766576    2.27710327200291    1.29233135144911
O          -0.69559191765137    0.98769263580798   -1.70341227099200
H           0.96300613515924    0.96675721585525   -0.98816192932916
H          -1.19556913780565    0.41279100552740   -1.08533793008370
H          -0.97420058689050    1.87867146670672   -1.47503191746445
O           1.74150163514445   -1.22689238216670    1.08702888437636
H           1.99246399862241   -0.46303807882682    0.51631807055858
H           1.02979026537839   -0.86959642355788    1.65421187941292
H           0.86429519857900   -1.99929650846833    0.11159981450115
N           0.10411128884600   -2.26148244504915   -0.61708586913878
H          -0.08966416591954   -3.25558045986918   -0.64305392258863
H           0.42438671414029   -1.89815886771396   -1.55003596320435
H          -0.74498757937836   -1.71194572857225   -0.32585019481546
