    26
        -50.44961607  Gyration_radius:  2.49722608764 Dipole_moment: 2.631
 S           0.58745639333258    1.88786529257291   -0.47616196605523
O           0.18414263359851    1.23461512656345   -1.71196853235502
O          -0.54104480740112    1.95531028216370    0.45981985229794
O           1.76640546019056    1.33523395304941    0.12877668849880
O           0.91064774717770    3.38772453928774   -0.86399833037188
H           0.10200474116497    3.64356741466090   -1.29407903536555
O           0.52879746382054   -1.80935606367009    1.55743514563139
H           0.89006748395869   -2.31690325040502    2.28578978817379
O          -2.93560634475426   -0.13575235407724    1.39469977049662
H          -3.27052573023791    0.73551100346510    1.17157823987230
H          -2.50186707416151   -0.49150062255894    0.54603960283765
O           1.32465028982180   -1.05288505278684   -2.45850226073649
H           0.88936716023473   -0.20325719456422   -2.23049670450172
H           1.91148435593092   -0.85987480895110   -3.19108647269076
O           2.46124421432577   -1.21866618117765   -0.01090413091410
H           2.13651129509003   -1.36807421157307   -0.92162568370601
H           2.41617310190953   -0.24813788750985    0.09839107703036
H           1.31183851241411   -1.61162225503258    0.94170128579275
O          -0.64409450329599    0.31325300069785    2.30983541167325
H          -1.64626749129853    0.08268773815893    2.09982042843727
H          -0.11662795111194   -0.52890269789892    2.02207740770918
H          -0.47323939317126    1.05436631699617    1.58843002208074
N          -1.51536650116359   -0.88243344308088   -0.66564615930641
H          -0.81522058325205   -1.52370732032194   -0.30885123302602
H          -1.02254922997534   -0.05463722682178   -0.99887817372846
H          -1.93838125313226   -1.32442406719038   -1.47219604775749
