    26
        -50.44961617  Gyration_radius:  2.49729292906 Dipole_moment: 2.629
 S          -0.72468482344870    1.80138127990014   -0.60576651770148
O           0.48583514014008    1.48543521302720   -1.37334344012386
O          -1.75927784694104    0.81005219189961   -0.85775076926077
O          -0.44623031850853    2.02682078230804    0.78459029715586
O          -1.26987400196882    3.15940112738978   -1.20785917711238
H          -1.46975133792792    2.89620064805869   -2.09954014887071
O           1.44319538792311   -0.97889833648635    1.71476259343150
H           2.06767620208408   -1.09213109164400    2.43309229097379
O          -2.66987604630187   -0.71827757416420    1.12389689949455
H          -2.37587943836606   -0.16606412958442    0.36772775406006
H          -3.54678510036457   -0.40672602152579    1.35244595860809
O           2.16767880152250   -1.28669896822533   -2.05606435375792
H           1.99979485872851   -0.75284580696749   -2.83566435502503
H           1.25241752965300   -1.53981608022320   -1.69108106217818
O           2.37704639108429    0.39407170059787   -0.20630602999668
H           1.59740669460633    0.96938082600827   -0.60633356885107
H           1.99932582559655   -0.11832419164641    0.60911290547770
H           2.46971848989533   -0.33353986715566   -0.95696149851613
O          -0.63466565239882    0.16990307489690    2.66637471635700
H          -0.57060721707011    0.99365973946224    2.14362552124467
H          -1.40779505848255   -0.29183559588759    2.28394401731682
H           0.62238817120467   -0.54486247927214    2.12636738749997
N          -0.16364812012916   -1.62155778895217   -0.92814766989665
H          -0.66670574964193   -0.74031348945044   -1.02582216164558
H           0.01689325438595   -1.75465113293488    0.06100914941989
H          -0.79359603528202   -2.35976402942419   -1.21630872810807
