    26
        -50.44961597  Gyration_radius:  2.49717609121 Dipole_moment: 2.632
 S          -1.08273288464068    1.72080693854021    0.03101519722426
O          -0.08824557616734    1.79622463374450   -1.04576570085712
O          -2.01161249085024    0.62754114965687   -0.21100708949207
O          -0.47787627826490    1.70720445623188    1.33299016969890
O          -1.93639220556970    3.04854629213304   -0.08273041993835
H          -2.32648306211597    2.94164918514952   -0.94338287850385
O           1.95644325072809   -1.02317974835975    1.05030557416355
H           2.75757711941274   -1.16357392701652    1.55751214128660
O          -2.16402955403341   -1.41144183549719    1.49488438829613
H          -2.98249048210871   -1.32000412961758    1.98486777254113
H          -2.15274346142651   -0.67304154172395    0.84839148641609
O           1.69457716849128   -0.41905990844035   -2.74461465909075
H           0.94820210614913   -0.90585222634939   -2.25393280874450
H           1.25989967796850    0.22173602486696   -3.31164745980383
O           2.16750498006942    0.86001297462128   -0.63977010695843
H           1.24290070660516    1.35020749747753   -0.70008530876698
H           2.08684763189975    0.13186747474704    0.09064173909221
H           2.15130866006584    0.32987182810530   -1.54548044987095
O           0.07520408683836   -0.49464883641077    2.70098162584102
H          -0.70605086008131   -1.00361993678743    2.40470743154120
H           1.22531135880847   -0.84079548082453    1.73121308142697
H          -0.10656466002401    0.41535754159287    2.39321470072348
N          -0.19446649584782   -1.40164564828199   -1.23264025529773
H          -0.77826595854905   -2.16934156742797   -1.54036059859887
H          -0.81403933298307   -0.62751793040031   -0.99587703530272
H           0.25621655562401   -1.69730329974536   -0.37343051702611
