    26
        -50.45760667  Gyration_radius:  2.4943683311 Dipole_moment: 2.729
 S           0.36170217599776   -0.09761649279999   -1.37315231760850
O           0.07413805483753    1.31914818107521   -1.26155609104639
O           1.37267329070789   -0.50109459613992   -0.38011792887753
O          -0.83696475510598   -0.91762654036393   -1.24511460145053
O           0.95573229958995   -0.38844607938873   -2.77418059154407
H           1.74578635261887    0.21692292980935   -2.78009092803248
O           0.08340953756727    0.38330576842179    2.99104102702963
H           0.82781049969276    0.91829737881898    3.27074117098383
O          -1.50585099082511   -2.51784693376049    0.74866334291236
H          -2.25057739041802   -1.98213145545569    1.04700835860680
H          -1.28077763282390   -2.15437855418180   -0.13473655511727
O          -2.96405524947538   -0.05388809920424    0.08434766727793
H          -3.65370666716514    0.29355045936352   -0.48275776478002
H          -2.22741980527261   -0.31633559342368   -0.51027087296608
O           0.70052264715537   -1.68315353744499    1.68091023400375
H          -0.19254034118688   -2.12475805085341    1.41297417296071
H           1.04650396864673   -1.22784989836263    0.78347050990072
H           0.46654827322872   -0.88075408159437    2.29711244301034
O          -1.10286571558846    1.67736538164607    1.09676446385778
H          -1.92355781657455    1.18780552752260    0.91031302653161
H          -0.40497187886066    0.92378090890940    2.29713960873316
H          -0.61252762636948    1.66477083949278    0.24808963029403
N           2.75263144496243    1.38951594852468   -2.16389877623089
H           1.95517833200097    1.87942424487298   -1.76818761329116
H           3.37769694889891    2.05944342522572   -2.59382407690252
H           3.23548203378646    0.93254890922271   -1.40068752833110
