    26
        -50.47126129  Gyration_radius:  2.42919001893 Dipole_moment: 4.306
 S          -1.88121600911427   -0.33462174929633    0.03284631342406
O          -2.29503709712249   -0.18699062206380    1.42061413720391
O          -1.41202148528435    0.93352775851499   -0.51551492671790
O          -0.92892558312902   -1.40359552588684   -0.16724353745451
O          -3.18084511780148   -0.72406980240144   -0.77508674581969
H          -3.82707622771540   -0.12946934650104   -0.40941200687654
O           2.47220921749946   -0.08547142523175   -0.33871519275323
H           3.36881114424809   -0.07519899402104   -0.67473417533082
O          -0.49771989650270    1.17924262248632   -3.00076560001735
H          -0.94092098306630    1.11582156682164   -2.13003329232688
H          -0.12317875730176    2.06054723168680   -3.04597163291423
O           0.79935275169366    1.82168752590532    0.69110530230144
H           1.49340577725623    1.26813420805752    0.28556960184013
H          -0.01473033339466    1.63844340531920    0.17836044207367
O           1.23115831157288   -1.79012908259689    1.42132404449399
H           0.46011920276055   -1.94177566385595    0.84473508180609
H           1.85687862239261   -1.29374661198627    0.86076156627728
H           0.56233164963281   -0.66447121320132    2.31253336649579
O           0.86363139905983   -1.01331495339914   -2.14229564993669
H           1.89732753862616   -0.43979233268422   -1.08376930849712
H           0.15954157568627   -1.30545589590368   -1.53398913048962
H           0.46282771048775   -0.28825255316502   -2.65768328175300
N           0.00947050199681    0.20613035022105    2.58998749987288
H           0.05986842767895    0.40480928114255    3.58265545721299
H          -0.98499558867637    0.04768987397372    2.26757395040776
H           0.38973323852621    1.00032193811297    1.98714773747329
