    26
        -50.46183269  Gyration_radius:  2.40572077548 Dipole_moment: 6.566
 S          -0.92346167639331    1.50408250209967   -0.96222849986547
O           0.11698968380963    2.45200074634240   -0.67171055366835
O          -0.46349016507895    0.20892914548459   -1.42430853419230
O          -1.87437046873979    1.34814393754472    0.14606225322681
O          -1.76228253722320    2.11600366726585   -2.16452034136342
H          -1.67177197549912    3.05656442682370   -2.04394718308417
O           1.29686451565472   -1.97050558865746    0.76942882028263
H           2.04919987816763   -2.16871511789464    1.32840232448276
O           2.19402067925049   -0.37443131791524   -1.41159985275892
H           2.08229590675941   -1.14144395832822   -0.83353681861212
H           1.28807955201573   -0.07780709992972   -1.60354804504800
O           2.51402868027385    1.61607953926462    0.40777172233556
H           1.88670954965203    2.23479366316882    0.00526100514281
H           2.65599370164032    0.93887376229090   -0.28581438930583
O          -0.97767663841436   -2.28597664696408   -0.69527082845120
H          -0.10298971616817   -2.50453417957640   -0.33487848037311
H          -1.66093992126592   -1.64294647982395    0.48854236699133
H          -0.83486482403543   -1.45165950993600   -1.19219933612398
O           0.42120763275911    0.45546560495500    1.47858930743353
H           1.28725417207613    0.90668535452998    1.28013423978762
H          -0.21524470756527    0.95966224427105    0.95679729006247
H           0.98012126854129   -1.07519085280470    1.03878781414297
N          -2.01374662672764   -0.96991173630976    1.27161254199404
H          -2.89604317307771   -1.25823407985024    1.68008106167545
H          -2.09131831497898   -0.00886369056092    0.79396081375437
H          -1.28456446543194   -0.86706431550154    1.97813131153312
