    26
        -50.46183264  Gyration_radius:  2.40574801452 Dipole_moment: 6.565
 S           1.82210388262990   -0.84275473629151    0.10741292577905
O           2.44997156436058    0.19270240617681   -0.66650602679460
O           0.91917211113559   -0.37518829807347    1.14125495413106
O           1.16752758461617   -1.85798614119105   -0.72790959959163
O           2.99119950881838   -1.60219679019594    0.86896551973540
H           3.73929445744591   -1.49839382995603    0.28837186435083
O          -2.14266749883713    1.22068269558420    0.27852225664816
H          -2.62689520076266    1.93647536782074   -0.13489390450149
O           0.29631737968900    2.26788624178483    1.31025886650751
H          -0.65202446189540    2.11107891420792    1.20536814389071
H           0.68734819239266    1.37922820409398    1.36476493844407
O           1.08195306021883    2.50806738088274   -1.27828249473722
H           1.84474445531263    1.91409619651967   -1.21686334315159
H           0.84181465004013    2.68144194535168   -0.34445287180438
O          -1.57798010465673   -0.96812685933840    1.79731315719113
H          -1.59293277741925   -1.71092769198390    0.48288536696939
H          -0.61377362385723   -0.78390319244864    1.79625704646901
H          -1.98566778444384   -0.11953694155245    1.55972637697030
O          -0.37214724729087    0.34012680046674   -1.52222301909850
H          -1.49334188830150    0.90155641976533   -0.39315394576495
H           0.08132760730212    1.22235216757698   -1.61698588895540
H           0.35202429263961   -0.25832214843372   -1.30075867905521
N          -1.39334499106650   -2.10036310080645   -0.51697512395092
H          -0.32055898677619   -2.13493093504112   -0.58917427352084
H          -1.69307174295095   -1.41342995009161   -1.20956208202753
H          -1.81039242834421   -3.00963411482730   -0.68336016413386
