    26
        -50.46183272  Gyration_radius:  2.40578385713 Dipole_moment: 6.569
 S           0.24078292513909   -1.73968540220847    0.97743062135863
O           1.16011306964641   -0.64800218575062    0.72143912000119
O          -0.79378554924173   -1.45358954857628    1.93307254294276
O          -0.28504453549031   -2.27756539339873   -0.28398567927717
O           1.12054883979046   -2.90338225306917    1.60651054745231
H           0.50216463559286   -3.38268832643134    2.14974316253910
O           0.05244127713722    2.29549707362916   -0.94195060555647
H          -0.50713175887080    3.07159742096088   -0.98969398412757
O           0.68492747471354    1.80802367127128    1.79176912008635
H           0.66268434372833    2.24409829090756    0.92906567763684
H           0.94474465112144    0.89149977614109    1.59677194679315
O          -1.91136678787270    1.06432590495456    2.07760786036523
H          -1.73473371276478    0.15176802690417    2.35038199242855
H          -1.04174119118364    1.50794180541969    2.15957481029275
O           2.04625082972935    0.52171117027080   -1.48438029832564
H           1.62042515722275    1.38538808807318   -1.35975245348344
H           1.96004727525018    0.07959949638460   -0.61224802555226
H           0.96115118345607   -0.27577629570005   -2.16766420555825
O          -1.54116023167959    0.22283999764961   -0.37766524325185
H          -1.20595881078637   -0.64105799002749   -0.10770271913294
H          -1.87385073421683    0.61540866420380    0.47567561576291
H          -0.54380852674745    1.53647760506091   -0.73472485872701
N           0.08334582256169   -0.87394345360691   -2.41811847915348
H          -0.02126520086537   -1.56456453402509   -1.59983506308397
H           0.16672303141736   -1.35495723890332   -3.30697746946030
H          -0.74650349678264   -0.28096437013736   -2.38434389296997
