    26
        -50.46183269  Gyration_radius:  2.40575229447 Dipole_moment: 6.564
 S          -1.42144045223378    0.78529161942001   -1.18462932263412
O          -1.06378232350603    1.05700335185768    0.19408900428801
O          -0.47879679965081    1.25510933433279   -2.16239623503440
O          -1.76087747892625   -0.63288661463767   -1.35906849988474
O          -2.76971413251876    1.58445423433309   -1.44404856095736
H          -2.74392084665029    1.76881041503822   -2.37831730389402
O           1.72431582274394   -0.56949446469832    1.69171537838083
H           2.66358363675447   -0.75319381877597    1.73407403490715
O           1.37593667521960    2.10698110349233    0.78371164027599
H           1.62077646551732    1.36722383824969    1.35622074076374
H           0.45019898789921    1.93387950443310    0.54156923071082
O           2.22797697438558    1.21035739285303   -1.63397807500343
H           1.41962829896600    1.42623828397653   -2.12218867916215
H           2.12880446983022    1.69336183630912   -0.78741373456690
O           0.97240481033550   -0.95231247142157   -0.84626463592364
H           1.45586480963864   -0.71454771990957    0.75284232322710
H           0.11666469965270   -0.66846163325253   -1.19087990322307
H           1.60282163805847   -0.27331421938635   -1.21300365584234
O          -0.90839920642380   -0.43833580237319    2.37570041505464
H          -1.09761638386115    0.26419337189136    1.71681316352695
H          -1.07145074839241   -1.59411573108348    1.41750094561662
H           0.05454377362028   -0.40345405535836    2.49531039044500
N          -1.12035769087183   -2.25063947929547    0.54711831914835
H          -1.69316369490950   -3.07376517194722    0.69800031741949
H          -0.17252101165191   -2.49593851961274    0.25929606041371
H          -1.51148030302497   -1.63244460443257   -0.24177333805276
