    26
        -50.46183270  Gyration_radius:  2.40574763736 Dipole_moment: 6.567
 S           0.02557781035544    0.17500240724001   -2.00241901072457
O           1.00224643349371   -0.35974664300891   -1.07358477218465
O          -1.14996983092665   -0.63205123363843   -2.18186937017428
O          -0.28948886836496    1.57089726771695   -1.67228761470952
O           0.75486508334102    0.22183723387760   -3.41299507101535
H           0.04054747340802    0.13143765021549   -4.03660842416113
O           0.26962762151228   -0.55922394340591    2.40309872602078
H          -0.25411716413246   -0.89603810123755    3.13110864575772
O          -2.21056638342122   -2.05055915781710   -0.06787206437861
H          -2.10566232532720   -1.77048016383207   -0.98928122153293
H          -1.35716648516612   -2.48106853914513    0.14690160104909
O           0.41391389534021   -2.57332611270123    0.39522577193092
H           0.54994455549529   -2.12100131225006    1.23894052921663
H           0.68001100149290   -1.92324396822726   -0.27719745699474
O           2.28210515688988    0.64370139455663    1.01766959173543
H           1.31132164708664    1.79142610661577    0.87654976829644
H           1.86295317764114    0.10183624723050    1.70576992456754
H           2.03642392884801    0.20183090360156    0.17627402344948
O          -1.44788311681088    0.37351483655160    0.57716591925169
H          -1.91146011195617   -0.50057232112229    0.45891226045221
H          -0.37194247583146   -0.21639000201446    1.73574992707554
H          -1.18592358779080    0.60821071397588   -0.32164558058476
N           0.47514657758141    2.44861067464399    0.63123086180597
H          -0.33298782387770    2.18740024065754    1.19692812052930
H           0.21411808233844    2.19465813560533   -0.38111569868634
H           0.69836571878133    3.43333768591446    0.72535061400832
