    26
        -50.46183203  Gyration_radius:  2.40589730783 Dipole_moment: 6.543
 S           0.56630153468738    1.59836298154918   -1.08056125694093
O           1.96044930591515    1.42591554466708   -0.77682134885315
O          -0.13486528419507    0.38593197081742   -1.45649978048722
O          -0.16244750103347    2.30705213099786   -0.02083934743098
O           0.50188437839062    2.54574656055699   -2.35416659714044
H           1.29615577483985    3.06693991496859   -2.28433340983127
O          -0.68691976644412   -2.19700548236190    0.92897735686976
H          -0.35939280802070   -2.86001760526659    1.53799080426264
O           1.11578802328703   -2.02297225086098   -1.26861367956204
H           0.76416377691240   -1.15298972718726   -1.52374725826755
H           0.45437436462614   -2.38546484102082   -0.66357317671517
O           2.84938847874281   -0.86661216109018    0.47293556887874
H           2.42042302661159   -1.45784548887375   -0.17989829112523
H           2.92295225966387   -0.01976989049700    0.00831998617719
O          -2.38203478384800   -0.75547654693661   -0.64069059488215
H          -1.99139918317876   -1.54022280852696   -0.22309126095219
H          -2.32586307836701    0.26309384457788    0.47243847109288
H          -1.64870270481542   -0.36897778358426   -1.16650781546074
O           0.61716952938595    0.07317362933321    1.47667712792248
H           0.59741894964167    0.84452641580623    0.89687332260945
H          -0.20150523071300   -1.36356887608309    1.13951876432381
H           1.51830768314867   -0.31678145457900    1.30692734898525
N          -2.03490345307421    1.01988958056681    1.20306710549373
H          -2.82119196506939    1.54208179967007    1.57379427527755
H          -1.34552217364403    1.65718186881349    0.67777205940811
H          -1.49002912344882    0.57780868454386    1.94405163634844
