    26
        -50.46183269  Gyration_radius:  2.40584579915 Dipole_moment: 6.566
 S           1.76084485170200    0.80881330268272   -0.53475928704412
O           1.35937480345487    0.08807929696577    0.65766833925663
O           1.87347282729382    0.00703940130596   -1.72215856855268
O           0.91681501807131    1.99479377456293   -0.72928649450974
O           3.21798400403332    1.36404455693493   -0.23068989141133
H           3.61985717413428    1.42032862755999   -1.09246503750143
O          -1.91583727380882   -1.27667917495465    0.92853532839815
H          -2.60359942668786   -1.87123483746230    0.62645805781660
O           0.14580686974784   -2.09811680432848   -2.16196301385327
H           0.32375757789045   -2.50177283308834   -1.28724637265836
H           0.91476836780869   -1.53005692204081   -2.31800641325350
O           0.60618919631580   -2.52082839388465    0.48102260713168
H          -0.27007236141221   -2.35356682164329    0.85404385084606
H           1.07075167134942   -1.66981680875416    0.55489156161661
O          -1.03346854781184    0.04667692513157   -1.22222369219322
H          -0.76288514845915   -0.77904919472872   -1.70994094542752
H          -1.59776590802494   -0.79243228127508    0.12926580558784
H          -0.22659444376662    0.57632009314314   -1.22002660765179
O          -0.52295385745271    0.47378970286156    2.48165620632382
H          -1.07814609768526   -0.29348683436487    2.26759464848743
H           0.31881850860507    0.30569056803922    2.00548909248697
H          -1.03560433534930    1.52064351436748    1.52157725496559
N          -1.25476904104138    2.14906007456726    0.65666964249559
H          -0.32408522945642    2.21248333577019    0.12069681425544
H          -1.60730391684743    3.06638026443869    0.90692644094336
H          -1.89535530260348    1.65289746819370    0.03627067344488
