    26
        -50.46183268  Gyration_radius:  2.40566194778 Dipole_moment: 6.564
 S          -0.26623593063249   -1.95317631421570   -0.39324662319067
O          -0.69731703521763   -1.13139279525726    0.72095819008087
O          -0.94860532517397   -1.70412610164064   -1.63327140215544
O           1.19516207295476   -1.90997764766735   -0.53102026836669
O          -0.61473709855716   -3.44802727386801    0.01648218627019
H          -0.74623889138176   -3.88522951234383   -0.81954663960340
O          -0.05437731159608    2.36773299304045    0.74296287415969
H          -0.16282099219479    3.24175528244715    0.36602617612235
O          -1.74591238286350    0.84943282571622   -2.30851919811747
H          -2.21573864379166    0.98865898913030   -1.46014754241007
H          -1.68633684324476   -0.11419937104622   -2.38723083869116
O          -2.45768494556747    0.90202261473803    0.31160580783130
H          -1.85345722966710    1.57261262825850    0.65823097740452
H          -2.00342270898589    0.05704459598561    0.47070261276046
O           0.58169398383495    0.37387421628438    2.48617644239313
H           0.25297505428283    1.23828349657075    2.19048956084308
H          -0.00034046307414   -0.27532344362079    2.03511989148488
H           1.77597212374255    0.15884235304514    1.58716947345245
O           0.65395706401626    0.74073663769201   -1.25913411338629
H           0.20756969065475    1.77539499348435   -0.00195014288066
H           0.65316051075063   -0.22123415050069   -1.18085360793853
H          -0.16441303178037    0.92623658636380   -1.79667365655618
N           2.45552491873356   -0.06694198058645    0.76365092144052
H           2.41397424573164    0.68862084037688    0.07886944177248
H           2.02164755613710   -0.92239647729343    0.27661565967312
H           3.40600161288920   -0.24922398509359    1.06653380760674
