    26
        -50.46117202  Gyration_radius:  2.41679845449 Dipole_moment: 3.328
 S           0.58491214852580    0.70976211975341    0.46231987959220
O          -0.04792678926964   -0.42147723463610    1.17188184631049
O           1.84088715687069    0.29001109001642   -0.12884890575785
O          -0.33672994296573    1.26238350107813   -0.51977294895363
O           0.84072441956456    1.80536401333568    1.52243243519855
H           1.53214371083523    1.36616249096967    2.10625216563033
O          -0.81666089979258   -1.99008706051186   -0.64754002465217
H          -0.48736575327028   -1.51667607236672    0.19804265902278
O          -0.21267620744223    0.77775887636616   -3.17269682614280
H          -1.14623715430308    0.67720526730584   -3.37403522583613
H          -0.16748297993749    1.18145210045196   -2.28634252505492
O          -2.61961218390863    0.26244068971063    1.59094414585078
H          -2.62770048797872    1.17342323998295    1.88829938985413
H          -1.68195626119507   -0.01124349809988    1.58360378894482
O          -2.49987958413141   -0.16214557138412   -1.06706297801568
H          -1.61338896295323   -1.37483147174864   -0.93036407421516
H          -2.95097813622276   -0.12432488264247   -0.20215974645806
H          -1.78686989893356    0.50736695948864   -0.96508700424941
O           1.06693585896316   -1.28359659590062   -2.09551703817586
H           1.54502694954084   -0.74601876626258   -1.42109452737006
H          -0.00675226735578   -1.80096092305102   -1.35323116077780
H           0.68325789939570   -0.61646463348342   -2.71252746205400
N           2.58340006882439    0.22872445614249    2.59643446891566
H           2.77516765666625   -0.03764416604600    1.63433664239300
H           2.09154996817909   -0.53627189077027    3.03976107624153
H           3.45821168228441    0.37968798230953    3.08197193976086
