    26
        -50.44929202  Gyration_radius:  2.51727129008 Dipole_moment: 2.086
 S           2.26197985367283   -0.42278206570550   -0.46027055740760
O           2.26797693904275   -0.54195619874565    0.98288761485921
O           2.08556840221664   -1.68296545688583   -1.14840837504293
O           1.32166351710722    0.59930609655418   -0.91272506687680
O           3.69190915799274    0.12939817662527   -0.87560469886245
H           4.27037121953261   -0.55987761448586   -0.56647190349984
O          -1.15111777662730    0.66357496085792    2.17462812230993
H          -1.00021713655578    0.84414615142265    3.10385326875277
O          -0.45947475618610   -2.17238591552440   -0.96930636073077
H           0.49414164749913   -1.95712313186474   -1.12055400487416
H          -0.57247579110949   -3.07229831705165   -1.28159047075719
O          -1.23613438849464    2.37429275866857   -1.39559996743709
H          -1.75682094032362    1.52945600665979   -1.18652738649849
H          -0.56652334439044    2.10849891511113   -2.03274235721901
O          -0.04112416187769   -1.59347680273344    1.67099017877962
H          -0.75544882398534   -0.25323081081838    2.00541746478658
H          -0.32609154341545   -1.91322307198661    0.79585815194407
H           0.88280386496744   -1.28768183735549    1.53511691167131
O           0.20977458502874    2.17021933860644    0.62895019159049
H           0.81725309141972    1.50507023729026    0.08847931943763
H          -0.45443004063102    2.43067465522831   -0.15173070477374
H          -0.33651708058588    1.59306342739569    1.28387138584183
N          -2.33597962595024    0.11824857052822   -0.65031161810247
H          -1.67178903668167   -0.61894041850201   -0.87598231197532
H          -3.24201096953625   -0.16221954797671   -1.00244244877064
H          -2.39728685214442    0.17221188464704    0.36021562283977
