    26
        -50.44929210  Gyration_radius:  2.51715614777 Dipole_moment: 2.086
 S           1.47806310116114    0.56147324329720    1.73376491675685
O           0.48614365597998    1.60406756313444    1.89512970845127
O           1.24543819447111   -0.59815136967979    2.56671475038547
O           1.66968618681122    0.21274170230289    0.32838540610744
O           2.86663856714270    1.18226063140116    2.19051256930405
H           2.70075748806216    1.39445046744263    3.10307644125750
O          -1.81369032350400    1.37919279188608   -1.14043695796033
H          -2.24620723890055    2.23462871315680   -1.14235720766126
O           1.24304433459730   -0.61092388163058   -2.68219650349293
H           1.94329048222119   -0.88552737424106   -2.08282983644320
H           0.40641948880394   -1.07619350226942   -2.34726014737085
O          -0.63553733862821   -1.91105615748456    1.34720048859790
H           0.13879880222524   -1.46888397491058    1.77553954535582
H          -0.90997072469348   -2.59753176974018    1.95841983460830
O          -1.84063197714221    0.54376085880221    1.28471365553323
H          -1.88114487184949    1.03975357412132   -0.18860905967244
H          -1.58807205361140   -0.39683630899967    1.31229459599701
H          -1.05278863611768    1.02280967340364    1.62452630451610
O           0.70521819507354    1.53114431371024   -1.51893281565059
H           1.12312834877575    1.12406009661054   -0.64537170124594
H           0.93074689776744    0.73332256587560   -2.17556091459816
H          -0.31580454207896    1.50841922525046   -1.38674032621867
N          -0.93710885751372   -1.57106460430253   -1.59605862908417
H          -1.60842951188978   -0.81211504337459   -1.63009372546853
H          -0.72358739786266   -1.74476442131132   -0.61638400602942
H          -1.38440023930569   -2.39903702243436   -1.96744638598783
