    26
        -50.46272433  Gyration_radius:  2.48130472133 Dipole_moment: 6.114
 S          -2.21294779447352   -0.45629493329679   -0.60373309605252
O          -1.65150661357137    0.84540284509252   -0.19236758117603
O          -2.15824686152324   -0.66225188735478   -2.02829017200581
O          -1.66039445207612   -1.51461062038521    0.20519856437297
O          -3.76432185614357   -0.36150053380389   -0.24875469253058
H          -4.13618272836152   -0.20900973987951   -1.11121206055726
O           2.04661070626321   -1.16950582778090   -0.20273031539683
H           2.74269662272333   -1.69505421967283   -0.59941132615556
O           2.20651890084870    1.35321291888201    0.68137178608898
H           2.22849848389925    0.42637482259148    0.34523960809431
H           3.11457345191446    1.65201839859598    0.73803845355815
O           0.42513739288850    2.04835313614386   -1.46991490262599
H           1.05966920506624    2.02792556449023   -0.74147638810562
H          -0.42935920058110    1.78219254028848   -1.08742414226882
O           0.35786966810323   -1.83803505447555    1.84873991255913
H           1.07225358467933   -1.79897058442295    1.18717812768304
H           0.05634186697291   -0.34298840871659    2.03709473342348
H          -0.45122403234378   -1.97978278106795    1.31394101182427
O           0.49827092831887   -0.56322619296189   -2.16406125919243
H          -0.46000401300029   -0.74512660123092   -2.18740970104650
H           0.56195140339918    0.41461041051001   -2.16415194437812
H           1.38542575959154   -1.00136257256650   -0.94617957840172
N          -0.15556040531322    0.71015401204479    1.91398081493470
H          -0.83361477243072    0.77762847631625    1.08256950757442
H           0.72225686672965    1.18033113252145    1.64801238363906
H          -0.56471210158003    1.11951570013843    2.74575226614183
