    26
        -50.44929205  Gyration_radius:  2.51683420409 Dipole_moment: 2.088
 S           0.95176051888571    2.08024218165468   -0.52052587447831
O           1.39793640161212    1.93248886857062    0.84915235348608
O           1.90911585083124    1.61261661197217   -1.49898176517452
O          -0.37735347953275    1.50814954675687   -0.71916999500456
O           0.76429986154136    3.63739285797066   -0.77032424844543
H           1.64441815395201    3.97025183080666   -0.62932365501865
O          -0.45313314149014   -1.09834861620081    2.25481623988841
H          -0.36206581051149   -0.98396047146188    3.20214905166256
O          -2.88546528510199   -0.38868980026677   -0.78878752529001
H          -2.58527219351200    0.23109043017292   -1.46021605460779
H          -2.20832975067772   -1.14373049750556   -0.80019503833002
O           1.65622669164856   -0.97277793697325   -1.47769305496787
H           2.38663652444498   -1.30831345670148   -2.00122323474753
H           1.70184177204345    0.01202743832236   -1.55977378432918
O           1.85033977889417   -0.62904316327548    1.22894428061981
H           1.80738985343846    0.35169580975530    1.18386120037640
H           0.47470789134654   -0.96325633238097    1.87159913501339
H           1.86151192447873   -0.91840308783249    0.29864183223851
O          -1.80596977165146    0.75961682578499    1.14636236087427
H          -1.13456726618753    1.19805998373844    0.46800590607047
H          -2.42271993502059    0.26570618636462    0.44295849333630
H          -1.28092393961257    0.01853538180388    1.63176179538166
N          -0.94844036931674   -2.14297342917191   -0.63304824488552
H          -0.12033776237678   -1.69914375209821   -1.02396333841715
H          -1.03758668585321   -3.05850437794033   -1.05418597523502
H          -0.78401983226309   -2.27072903186509    0.35915913998553
