    26
        -50.44929191  Gyration_radius:  2.51716095051 Dipole_moment: 2.088
 S           0.08979030501726    1.87349626496412    1.41005135002928
O           1.26471204176074    1.15767906513338    1.86182876323435
O           0.36634215680035    2.86557162320478    0.39420661539693
O          -0.98257209647042    0.95993327773472    1.02416221892565
O          -0.47745095894420    2.65491125762166    2.67089312416465
H           0.24386665203640    3.23640404286566    2.88735745847360
O           1.14129063231539   -2.27065544217491    0.18872449947656
H           1.74286952252608   -2.79011954180769    0.72454164800977
O          -2.68439827771033   -1.35421911073443   -0.26762832656275
H          -2.01922751674180   -1.30099814844479   -1.03133847218929
H          -2.94774672379071   -0.44516531012398   -0.09664208042615
O           0.62995816539000    1.49644847364030   -1.79788395851586
H           0.96529128692916    2.11484477495222   -2.45003135575537
H           0.44630601946573    2.03702190163619   -0.99002233129252
O           2.29594605979096   -0.02235700971769   -0.24879642241512
H           1.81545695597572    0.46536228684844   -0.94200651939185
H           2.06341114400360    0.43961690145606    0.58677565037767
H           1.63311714542846   -1.41021529534139   -0.02015639554853
O          -0.90556952248568   -1.46237701581707    1.48008875413771
H          -1.71664546495184   -1.58998093276501    0.81347948497424
H          -0.07555819873754   -1.82172918867931    0.98761167259320
H          -0.84255505355862   -0.41485831449061    1.43459980077415
N          -0.74375402797627   -1.13757359966642   -2.01171085864269
H          -0.89746473888926   -1.33746396234021   -2.99145559280964
H          -0.01460103967600   -1.75765623538842   -1.67757674463852
H          -0.39081446750848   -0.18592074256042   -1.93907200237535
