    26
        -50.44929200  Gyration_radius:  2.51697762304 Dipole_moment: 2.090
 S          -0.54825575054518    1.26106968290593    1.90103055624921
O           0.13664804854679    2.26707011752377    1.11625284026774
O          -1.98389496686592    1.26077576211424    1.72328646411017
O           0.04016054081643   -0.06238210255556    1.71250387228995
O          -0.27561299686909    1.61265053525286    3.42558485071711
H          -0.67136970571364    2.47412706069284    3.50635271598733
O           1.70947142957414    0.43455763242784   -1.83911350601149
H           2.36971752885042    1.05699375076563   -2.14811984412853
O           1.20108647349869   -2.72318478013582    0.49606735170908
H           0.59337370397174   -2.52811803816620   -0.29215866916367
H           0.64833099224208   -2.61440468504974    1.27559942122822
O          -2.36089144545290    0.04734656281594   -0.54263886689469
H          -2.23863968934039    0.43218747465847    0.36045261608075
H          -3.28832483712352    0.17378898787027   -0.75244804459047
O           2.16850016517131   -0.42246419754561    0.51996609689005
H           1.94513072690661   -1.45567959153996    0.48311685150581
H           2.02624425697215   -0.06812185519591   -0.43648069552496
H           1.33219243510458   -0.11256362659048    1.07471546513630
O          -0.42944546208408    1.78195207615939   -1.40453409077902
H          -1.18054777417544    1.17505674768729   -1.27486938765076
H          -0.22359056056372    2.11861913402244   -0.50454398910238
H           0.85833995307400    0.97156255457160   -1.72469694680255
N          -0.31217108141871   -1.90214371335762   -1.47631061864291
H           0.28136164079532   -1.29866294426656   -2.03434396460999
H          -1.03762295274719   -1.31917189693048   -1.06473920446673
H          -0.76019065264384   -2.56086064815303   -2.09993126381295
