    26
        -50.46117192  Gyration_radius:  2.41688750065 Dipole_moment: 3.331
 S          -0.04329533643570   -0.95645061460536    0.37450685892662
O           0.90563398296759   -0.74993503642852    1.45150515032444
O          -1.15160786278636    0.01562044609927    0.47778523234022
O           0.57678526900216   -0.86997737861743   -0.93970698698754
O          -0.67851452751328   -2.36073040152666    0.49310872500714
H          -1.00969307909187   -2.35528841152056    1.44305869509344
O          -0.13496632626339    2.23969207477173   -0.13679827559682
H          -0.66867041403730    1.44341597084497    0.22310769130610
O           2.90850804310242    0.39163527206314   -1.44987703877774
H           2.69452402788420    0.81837539729343   -2.28302498608889
H           2.21174306633171   -0.27320103973872   -1.29796854823310
O          -2.41785326297973   -0.00018128551140   -1.90027994537321
H          -2.50564345540380   -0.91568167158689   -2.16956349650243
H          -2.09172128577306   -0.01965206480793   -0.97978613614438
O          -0.07327388296089    1.21359852024819   -2.43768805027958
H          -0.07919432493146    2.00670598623262   -1.15449734770730
H           0.25056898633613    0.37211554642499   -2.04514070189592
H          -1.02068356154373    1.02817052096819   -2.58291296011229
O           2.05168540052491    1.52951431387729    0.79029017142296
H           2.58151931352908    1.23891726254167    0.01060046194207
H           0.85678742670650    2.06504740873180    0.28085255952098
H           1.74331390277765    0.68879627406743    1.20295967555314
N          -1.24871818881324   -1.79644728597893    2.94906978619195
H          -1.30159390714814   -2.34509998729253    3.79760515225035
H          -1.99268412159011   -1.11079460036395    2.95653447676737
H          -0.36295590175906   -1.29816522617586    2.92625988696715
