    26
        -50.44929199  Gyration_radius:  2.51697666693 Dipole_moment: 2.090
 S           0.70274882685509    1.71510181874995    1.43856015338086
O           1.34915936538069    0.88144383047859    2.42842428722700
O           1.52908631027425    1.99639446913238    0.28312206310809
O          -0.61124667837198    1.20866297087358    1.05094206822907
O           0.40955382671613    3.11118225276423    2.13657773883489
H           1.28335942483023    3.40459894994033    2.37248115091668
O           0.24950630593088   -0.25115097536370   -2.52350663172104
H           0.60768241008075    0.16504719612368   -3.30919819165935
O           1.18312954507811   -1.52521187315797    1.46437979187466
H           1.17639644226478   -0.62922907432062    1.88365911014702
H           1.73903729328284   -2.06801509031788    2.02693853225524
O          -2.97884507771356   -0.41739484118016   -0.23613029562670
H          -2.31302621411693   -1.18050406917736   -0.29077730815351
H          -2.90464403946146   -0.07975530655225    0.66138147219833
O          -1.41748744843095    1.22673637982588   -1.27956519095460
H          -0.75378025934779    0.65259461703294   -1.81848984332076
H          -2.19729293773705    0.57369423345985   -0.98928461910636
H          -0.98390820813577    1.36526645646985   -0.33301506477668
O           2.14397710639435   -0.32058181997725   -0.79565388500389
H           1.89312268976139   -0.90158537763558   -0.05484616559935
H           1.02259208505088   -0.32002455853782   -1.87275076322320
H           2.06266891276490    0.59024734781835   -0.43582439305843
N          -1.03121540051624   -2.15684314617098   -0.42428894559593
H          -1.21304892470316   -3.15111683209442   -0.38087832770775
H          -0.36442635498719   -1.92926343543567    0.30996446224965
H          -0.58309899115831   -1.96029410275609   -1.31222120490616
