    26
        -50.44929208  Gyration_radius:  2.51697373947 Dipole_moment: 2.088
 S          -0.05604129528674   -0.89312450426755   -2.16879182141531
O           1.32013883646692   -0.44597674694080   -2.11238869931839
O          -0.23367006068032   -2.28065026415291   -1.80022568808843
O          -0.94391378678995    0.00105839506588   -1.43028394753109
O          -0.51399771426016   -0.75930947898915   -3.68361166304735
H           0.08450983555124   -1.35135385510186   -4.12689405200609
O           1.64946326779141    1.61046629034400    1.08580054903177
H           2.45284566820758    2.11109230912140    0.93481547988107
O          -0.12117928855739   -2.28561071267544    0.79516855616787
H          -0.08090408779360   -3.20938769856611    1.05048408364937
H          -0.25325667229960   -2.28715569048259   -0.18522821157276
O          -2.29306403176397    1.80493141191263    0.76895535245311
H          -2.71735781301686    1.21895592156500    0.13523361316746
H          -1.83198624445928    1.19226199158108    1.43277497908434
O           2.13530443555043   -0.80168240931851    0.36137476328868
H           1.98063553433272   -0.71032926644765   -0.60475251505859
H           1.87425795965641    0.65219247814238    0.84691158473553
H           1.42186613190786   -1.38868598939584    0.67077245614933
O          -0.21424701021974    2.18924078598309   -0.55795302457164
H          -1.09419256305147    2.22223962245416    0.02796833933936
H           0.55536634357714    1.99552203375588    0.09841217039195
H          -0.40653204164861    1.28623183358368   -1.05880931152997
N          -0.86170592638608    0.19882412767996    2.26099450450116
H           0.04426577656764    0.64665190253736    2.34158682790043
H          -0.73140633329694   -0.65736641977036    1.72669464279866
H          -1.16519890009723   -0.05903605761466    3.19099104159338
