    26
        -50.44930405  Gyration_radius:  2.55017502657 Dipole_moment: 3.575
 S          -0.73626940164583    0.81758744460494   -1.26965010053714
O          -1.58593418312759    0.27813065672838   -0.20588605541655
O           0.29107635756217    1.69075889181767   -0.74035253123804
O          -0.16799987358643   -0.27210644457855   -2.07594760894239
O          -1.64713440892436    1.62621000734360   -2.23164188422755
H          -1.96675006516352    2.35431354563236   -1.63533057041079
O           2.68341872643230   -1.82104288457271   -0.49616123466899
H           3.16249583518867   -1.61213057336502   -1.30045535631266
O           0.85439357762001   -0.65235339621260    2.77306886216640
H           1.41581898688919   -1.35920140838331    3.09679867242519
H           0.13645038142932   -1.07115254060479    2.27041333712969
O          -1.01049473957931   -1.81904235055277    1.07599505899797
H          -1.25229829240719   -0.94918871390602    0.61450004288054
H          -1.84651563482838   -2.23308504867315    1.29779963709851
O           0.32317570028875   -2.44211563777501   -1.04660610071252
H           0.05817343125317   -1.53187386718470   -1.57253674770040
H           1.34207264161862   -2.27600432326544   -0.81697211585921
H          -0.18281615441437   -2.36546446962709   -0.17904600359353
O           2.17814675489269    0.42139227562000    0.62765194010776
H           1.54322231481963    0.95226469473697    0.10097016960771
H           1.73311199306452    0.22962043922548    1.47431089223728
H           2.53785086144066   -0.93134983098396   -0.02701070474549
N          -2.03650780389757    3.19834887989906   -0.18802731975760
H          -2.29689963287683    4.14076659917823    0.07461424399904
H          -1.03563592094434    3.08021023683314   -0.05762199394983
H          -2.49415146085487    2.54650780782257    0.43712346119616
