    26
        -50.44930407  Gyration_radius:  2.55028210471 Dipole_moment: 3.576
 S          -1.32365799834675    0.65267113522221    0.80300536118335
O          -1.77331726636624    0.27519781296098   -0.52115795580462
O          -0.58485013380530   -0.43287127789819    1.45130716929716
O          -0.51656780287317    1.88086825692628    0.77887432946123
O          -2.55735074853935    0.97349432446580    1.68850144807872
H          -3.06630985502052    0.12148152383838    1.63383645976209
O           1.93189585101314    1.87753983898532   -1.87307057442321
H           1.53118060225974    2.70049637405168   -2.15960681556389
O           1.89466630719378   -0.78374394465983    1.13272313627138
H           2.22025545050481   -1.14660793348215    1.95847715528855
H           0.89075459834608   -0.70230827718173    1.24903801048863
O           1.72651014662173   -2.00667621309237   -1.35659642343901
H           2.58267941016223   -1.90180554881975   -1.77566583847036
H           1.81702510575673   -1.68000267510964   -0.44631020683709
O           0.18642561606075    0.05534083876312   -2.29734060510215
H           0.59293558254110   -0.79891242464038   -2.05939597124095
H          -0.59207496310213    0.15899137256056   -1.70949892936615
H           1.25639731540741    1.15244191820527   -2.09845900033757
O           1.92654041618944    1.74886589835750    0.62562210133598
H           2.01984699895970    1.84098155515813   -0.42360639897999
H           0.85856896994510    1.86853359258078    0.76948826568343
H           2.08348143655776    0.77804002267941    0.84377110825947
N          -3.33860472884022   -1.44145029600670    1.09098078033849
H          -2.58978497945093   -1.96918940322303    1.52210417401353
H          -3.02219568952388   -1.18559042384354    0.15982163343181
H          -4.15444965171070   -2.03578604663873    1.01315759651075
