    26
        -50.44930434  Gyration_radius:  2.54970406893 Dipole_moment: 3.579
 S          -0.61304795773757    1.42884737858595   -0.63858491782277
O          -0.52129611518625    1.30205556530479    0.81748270661515
O           0.66577216692962    1.19212703811600   -1.27627634424842
O          -1.66121012477484    0.54418577666488   -1.16661423102623
O          -1.08023819721548    2.87500691780741   -0.95404481132192
H          -0.31957125706074    3.40916525622805   -0.60227039335601
O          -0.55259549415788   -2.87882298678809   -1.47073293023080
H          -0.80475058591888   -2.81263327116108   -2.39373500708652
O           1.79091074769454   -1.84055478289028    1.49673715957265
H           1.76042263681570   -2.79517222444250    1.58321528132532
H           0.92732525306994   -1.50398669781152    1.78723162468539
O          -0.77204007776065   -0.90402616106100    2.01867465129647
H          -1.17728285835853   -0.70213349595362    2.86398019724818
H          -0.62117584782327   -0.00786507908172    1.56906508168294
O           1.46604199610270   -1.33563648751979   -1.17612138719185
H           1.76887148752744   -1.42574423746210   -0.25307758021667
H           0.28407341335033   -2.30924973737774   -1.37497825065536
H           1.21694139966162   -0.39350903596457   -1.28970312350739
O          -2.15609728790144   -1.58357081807291   -0.05356692482846
H          -1.68934598041562   -1.45440128244640    0.82967983602364
H          -2.03392166527001   -0.62466249478949   -0.54376659712054
H          -1.53354109416116   -2.21052644587591   -0.63546551483822
N           1.18720671837144    3.60174896377854    0.10860372540299
H           1.03719453241779    3.26178921067156    1.05050676820678
H           1.87531573730200    4.34387646026798    0.13476737754426
H           1.55603846424729    2.82369268127813   -0.43100639620606
