    26
        -50.44930435  Gyration_radius:  2.54976210516 Dipole_moment: 3.573
 S          -1.30459174083959   -0.81269726614953    0.68066460955844
O          -1.14158737051188   -1.32103801656881   -0.66573059081218
O          -0.03522784562040   -0.80321049336006    1.41079131421506
O          -1.91414075043303    0.52474999080859    0.69183479455573
O          -2.28488842531099   -1.73159009119458    1.45776614810369
H          -1.83073846665786   -2.61237237209578    1.38318953826195
O          -0.44649196449797    2.72754259930031   -1.76409619361569
H          -1.33701259532294    2.84192988488778   -2.10141846849577
O           1.59342117155562    1.12271338760269    1.29988370938118
H           0.98589632369585    0.31182124107048    1.33407536893274
H           2.02043197771945    1.15982564749658    2.15766736737223
O           2.69694021704583    0.46252746538979   -1.16238447373781
H           3.08554318696878    1.26488092376990   -1.51586114296265
H           2.41052452831485    0.66433047503831   -0.25642282349746
O          -0.49891542692840    2.52608124612552    0.72890191895009
H          -1.17492947582085    1.68021682769414    0.78713247156324
H           0.39118945079187    2.13028587274935    0.98471619048897
H          -0.46084480303618    2.70740355844956   -0.31253811147327
O           0.19921989986788    0.30599517006961   -2.27709840932926
H          -0.17569687411135    1.78258558786864   -2.02321565240750
H           1.12150113935668    0.18247742214173   -1.98392721089718
H          -0.33902352178076   -0.32624944092715   -1.75453676940267
N          -0.61607863117121   -3.64353328727815    0.85875183882777
H          -0.53113925088465   -4.64492038319433    0.73656573187053
H           0.19703456024785   -3.30498490491815    1.35822132703985
H          -0.61039530269982   -3.19477103480477   -0.05293250243410
