    26
        -50.44930425  Gyration_radius:  2.5498320741 Dipole_moment: 3.575
 S           0.04490784627465   -1.39576469386262    0.93466727841232
O          -1.01500700994623   -0.41945895493007    1.19500712246634
O           0.05736975189668   -1.81235280622072   -0.45247049647676
O           1.34819459287042   -0.86542160901010    1.35962646610710
O          -0.22441539197669   -2.63053687875412    1.83576869711141
H          -1.09311512260705   -2.95182358236289    1.47551550436621
O           2.76474709492707    1.41200283553178   -1.05565759235770
H           3.53096590552446    0.83502477954108   -1.05588218040688
O          -0.70308159596305    2.06327879858722    0.85992187867768
H          -1.24885843940747    2.49182501220451    1.52175959046421
H          -0.88039421700389    1.07045604886200    0.96336271736874
O          -1.01146464200956    2.04997203766054   -1.90094352185965
H          -0.59115041109932    2.84627382611939   -2.23094925884489
H          -1.00240498907099    2.10842204969166   -0.93142156198457
O           0.87066881788529    0.07251196212133   -2.13435379789019
H           0.09293780764818    0.65905588069127   -2.18743812650099
H           2.03398656348441    0.89523769136592   -1.53745701601851
H           0.60186488261975   -0.68478521068768   -1.57163165364397
O           1.79711218588227    1.54198109512244    1.24762597736110
H           1.63157680014410    0.47990566362789    1.38975646130348
H           2.25755870953525    1.56814824169620    0.29559619026677
H           0.86672418332428    1.90837457912160    1.12718201159722
N          -2.39670384053941   -2.91162333727024    0.42086564927914
H          -1.77742125805469   -2.69999372209259   -0.35653122057798
H          -2.86288056743484   -2.04783514374716    0.66937441977078
H          -3.09171765690714   -3.58287454301052    0.11870645203925
