    26
        -50.45064740  Gyration_radius:  2.41892712359 Dipole_moment: 1.259
 S           0.58152787248467    1.88594479583595    0.53639695508235
O           1.03561121508397    0.77064787721434    1.35076978663841
O           1.63541768292735    2.50341986981127   -0.23752310039599
O          -0.59279882973876    1.52742495560630   -0.24133922200274
O           0.07810888392275    3.00718441492798    1.54979081777600
H           0.87166707201846    3.51237883121064    1.69440313193474
O           0.12836252407232   -2.48244966972737   -0.63917959330340
H           0.38686961571441   -3.12512415135465   -1.30172419730546
O           1.46134893832371    0.60311862188366   -2.01846271140678
H           1.56720586194804    1.36264730742892   -1.40474133353357
H           1.54357299475847    0.96081700642212   -2.90403663765893
O          -2.90254638753930   -0.10305625043518    0.22701361454581
H          -2.30976882602919   -0.51328104005608    0.94951976423283
H          -2.70521096611329    0.84026625325966    0.26612412390216
O          -1.23963116705975   -0.53480654017968   -1.55224817195448
H          -2.08428921165605   -0.44996840304946   -0.88021628640850
H          -0.74389461383062    0.29708739347641   -1.25527390707368
H          -0.68908339836195   -1.33930377241493   -1.21817395383777
O           2.23588223547371   -1.12155657911592   -0.07674298146289
H           2.26561283730092   -0.61393468555891   -0.90354493718726
H           1.91839484715507   -0.47107860050736    0.58379412400855
H           0.97924652931287   -2.01373914291203   -0.35655317543618
N          -1.09092294336122   -1.04811034375654    1.83283182509198
H          -0.35062135773971   -0.34891220762832    1.73089854200325
H          -0.73596079871195   -1.91519670882081    1.44564490966727
H          -1.24410062042897   -1.19041923149479    2.82257260404018
