    26
        -50.46272430  Gyration_radius:  2.48117908323 Dipole_moment: 6.116
 S           0.11721099095993    2.33554196590925    0.01960990043923
O          -0.47452038817259    1.46424304117237    1.05383449282924
O           1.50795268048651    2.62248145527870    0.26089425293958
O          -0.20184517761528    1.83517156534996   -1.29475225127932
O          -0.63751236305366    3.73057203869968    0.18157895566334
H           0.02405176026005    4.24038506238243    0.63739899931292
O           1.03067960062690   -1.69930797874316   -1.28387786884818
H           1.72035967834462   -2.18423246657129   -1.73916013657738
O          -0.43403163529245   -2.51596222924856    0.80386873409184
H          -0.33545331858154   -3.45561660880156    0.95999798779995
H           0.13541140099684   -2.29094053048473    0.03080208862106
O           0.91600571828075   -0.48823242730602    2.33702515257394
H           0.40854111566550   -1.24565966085671    2.01694472559283
H           0.41433981956871    0.30172845496974    2.06949746326175
O           2.28705065414731    0.08353497834167    0.07840559320322
H           2.11276339864456    1.04214278437890    0.02837915535701
H           2.03828025375931   -0.16326837786286    0.99350252315936
H           1.50439340393018   -0.94053431633696   -0.81718179106757
O          -1.12332580066914   -0.38263978022391   -2.34890301668731
H          -0.79550147674442    0.53216523687233   -2.22100634302814
H          -0.33743379574401   -0.93708777515704   -2.19246315398522
H          -1.78149019695656   -0.41587939532011   -0.96054321715171
N          -2.00779343562679   -0.38640384314845    0.09635734496325
H          -1.66395553790828   -1.26187147261993    0.51791152699437
H          -2.99546527228823   -0.24574686395598    0.27398366636232
H          -1.42871208701790    0.42541714328189    0.49789524545954
