    26
        -50.45064724  Gyration_radius:  2.41957844085 Dipole_moment: 1.252
 S           1.34207032690969    1.54369405092488    0.02733614829061
O           0.10450700704061    1.72061557758942   -0.71436946765577
O           1.41524590075477    2.34393724294656    1.22938211353085
O           1.63640998699419    0.13524374933018    0.23382228757131
O           2.51130173847618    2.07467496356849   -0.91514033510583
H           2.56675750385123    2.99069439528831   -0.66282548172226
O          -2.19858668663135   -1.29778325897980    0.24789599613382
H          -2.84933180456510   -1.65962440116776    0.85157410001409
O          -0.07542061408356    0.61001972920136    2.48935432871439
H           0.50654302852460    1.29267581310417    2.08962372717962
H           0.24991705672818    0.46886733090515    3.37997494751903
O           1.29451301463054   -2.25058765052844   -1.33116176398245
H           0.61356778762891   -1.67371272944050   -1.82611679043377
H           2.02640898892522   -1.64972483810748   -1.14840475758212
O           0.21276485156726   -1.85530126111100    0.85841282910488
H           0.65589832650971   -2.21224621464594   -0.06136867529791
H           0.68808297026784   -0.96100148960892    0.90164429729431
H          -0.77383947128257   -1.65296491956894    0.64005210270241
O          -2.05841165274946    1.22084191191945    0.74597833040056
H          -1.36960861205407    1.53730507704079    0.12509086546667
H          -2.21509191275351   -0.29575141907023    0.38598289209763
H          -1.58725990774564    1.14179723954488    1.59082544758822
N          -0.48636537877720   -0.59446270251289   -2.24814761956801
H          -1.39591900112188   -0.86994911434380   -1.89517242454339
H          -0.58843999028764   -0.37576063364169   -3.23051520020297
H          -0.22571346675997    0.26850356134780   -1.76372792751445
