    26
        -50.45064670  Gyration_radius:  2.41972127168 Dipole_moment: 1.249
 S          -1.02675846167721    1.27768054015733   -1.22398786205595
O          -1.48995093806458    0.75974394423009   -2.49202187952585
O          -1.72142697986076    0.71575900893458   -0.07747074855971
O           0.41507417671585    1.21538122189485   -1.04929885472892
O          -1.37276533178544    2.83240481191937   -1.24238969846108
H          -2.14812680531323    2.85450309811044   -1.79391023869962
O           0.59907306963595   -2.09848664427888    1.34757606380469
H           0.87004959571536   -3.01741865977316    1.31652906861369
O           2.19485925998951    1.51257317387308    1.18974155505062
H           1.34799216280926    1.31583224020638    1.72369724729591
H           1.89581249855592    2.08327484704107    0.47214431925144
O          -0.05420522453588   -1.39413060272718   -2.15104007785021
H           0.36892535153669   -1.65184018574813   -2.97176425823294
H          -0.60013901218926   -0.60496599356939   -2.35972568962394
O           1.97160417284229   -0.55709457610478   -0.14795132207075
H           1.44044133950683   -1.20901370038289    0.44810038165214
H           1.29222190723067   -0.07693434779509   -0.72757703084816
H           2.23955617392347    0.27700875130605    0.48504765491575
O          -1.59262322635045   -1.93660836515810    0.01319455926131
H          -1.19653050032593   -2.04381617942502   -0.86631683978283
H          -0.30764375542690   -2.05868713795035    0.90046050502290
H          -1.81314261264391   -0.98273474510944    0.05368743900127
N          -0.07665440896505    0.80245449233190    2.23531792029359
H          -0.01773469746442   -0.17336777852948    2.50371459491083
H          -0.69634325096325    0.85291611354947    1.42248206378691
H          -0.52156449289813    1.30556667299664    2.99176113754377
