    26
        -50.45064712  Gyration_radius:  2.41946015782 Dipole_moment: 1.253
 S          -0.04412820767819    0.97558583697624    1.79745401882615
O           0.11016535127188    2.41314975391599    1.77983070273235
O          -1.30311186065471    0.51897474088587    1.23225569592939
O           1.08175067756365    0.25155682369671    1.23076668151130
O          -0.06622947864852    0.56408608785667    3.33610686200232
H          -0.45092290865830    1.33518057962115    3.74026881571496
O          -0.51912164374059   -0.59933012733643   -2.43986794080631
H          -0.42879361130139   -0.34847888393074   -3.36059952556227
O           1.52276690808400   -2.45812329830202    0.38563213505156
H           0.50312907927017   -2.47728970211519    0.35022598430641
H           1.72294602659054   -1.94498469773019    1.17733757771616
O           0.79760054798515    2.32225679851499   -0.73706034473795
H           0.57104081222143    2.43323871959360    0.21202211788991
H           1.52214948628243    2.92522360799879   -0.91176392154662
O          -1.68369524832538    1.36446181182372   -1.25764991304548
H          -1.05818218356345    0.13582020399689   -2.00103068773720
H          -1.73115517257329    1.07227593080684   -0.32354481787283
H          -0.92469250892950    1.96921600120675   -1.27113746437241
O           1.65506523724185   -0.49457729371710   -1.11362660229490
H           1.70570293140278   -1.43875148186337   -0.58866934171903
H           0.79590080842720   -0.52944923275116   -1.68188985053914
H           1.44934560052937    0.09549666152753   -0.31558264450205
N          -1.04905444940674   -2.12092759403508    0.21804204320773
H          -1.16026847151007   -1.20548538286848    0.66177918175607
H          -1.72053589010951   -2.74945276246738    0.63916717985539
H          -1.29767182176878   -2.00967314131926   -0.75846593179527
