    26
        -50.45064785  Gyration_radius:  2.41903460339 Dipole_moment: 1.257
 S           1.47658075137831    0.23027646646126   -1.39591370592426
O           0.19749867584474    0.87563311067359   -1.64267589915280
O           2.54225537014352    1.15840473634225   -1.09001231430418
O           1.34402855709424   -0.85621187311316   -0.43967976408939
O           1.89582302420531   -0.47304705055299   -2.76221620116893
H           2.38249762507488    0.21865766850873   -3.19882913826475
O          -1.83610991490022    0.57705918613394    1.69794147114865
H          -2.04336999802386    0.95065550767608    2.55601244286849
O           1.70330463395733    1.33841368759971    1.37496290734747
H           2.44297677336862    1.36294317352578    1.98429694468399
H           2.09125628696241    1.30199421570248    0.47336282608107
O          -0.65409321257229   -2.83899098217019    0.10773036643146
H           0.17784618128077   -2.81888747540383   -0.37984411483459
H          -1.25456088897001   -2.18409227466028   -0.39467452854023
O           0.07006797697316   -1.11555281114058    1.72752446516724
H          -0.69930029039509   -0.43076516796674    1.75497850282768
H          -0.30502998653342   -1.96512591559112    1.17157046939761
H           0.73020663127809   -0.77954237121951    1.03650863980876
O          -0.58537923649180    2.40117203951488    0.38694373460955
H          -0.38099941940849    1.96944974240915   -0.46865308993399
H          -1.42749837048811    1.32791650358513    1.15696034550160
H           0.24879604150935    2.34145042202900    0.87978224188881
N          -1.94004557444178   -0.89283127477052   -1.03797272229921
H          -2.55179912183048   -1.02398898495754   -1.83285702659825
H          -1.16844290090399   -0.29039033278961   -1.33630348513792
H          -2.45650964411502   -0.38459993581562   -0.32894336752431
