    26
        -50.46272434  Gyration_radius:  2.48144815143 Dipole_moment: 6.111
 S           0.21978141709983    2.32762651174037   -0.07090722207826
O          -0.87000252247055    1.55365615673509    0.55537016772432
O           1.29871679629771    2.60974455842479    0.84077061884968
O           0.59919658699987    1.72691660481246   -1.32585179542219
O          -0.42891377324501    3.74376852130477   -0.41051181628342
H          -0.06968876745372    4.27757195968274    0.29049554948233
O           1.45032006303284   -1.81503740714861   -0.44667635420494
H           2.24721772369049   -2.34703736445692   -0.44438752337251
O          -0.92847051127718   -2.43360270408180    0.61611357533622
H          -0.97754919197561   -3.35816288632398    0.86072427462575
H          -0.02896686058542   -2.28199391063858    0.24131588989362
O          -0.45913389751843   -0.30550862434977    2.49628960510459
H          -0.76831554881351   -1.07932917357031    2.00712673937299
H          -0.70350435860000    0.46675937174046    1.95670067298051
O           1.91605389318222    0.05422052683988    1.25636292661927
H           1.21454217953702   -0.11137203248209    1.92014056985222
H           1.65530069941174   -1.02805798782920    0.15066754735635
H           1.84678091423412    1.00771198144818    1.06127969924521
O           0.23965839914542   -0.55948755984133   -2.55976794073934
H          -1.04456475572887   -0.46810062913325   -1.72088059765504
H           0.50304864393964    0.35832704993296   -2.33845086686661
H           0.79794078422817   -1.10977728490731   -1.98092758887768
N          -1.78472127881221   -0.34745428016267   -0.94187246089931
H          -1.75932291007948   -1.18971714188322   -0.34832808559680
H          -2.71142203467682   -0.17809063594439   -1.31522484041057
H          -1.45398171956277    0.48642636009163   -0.34957073403615
