    26
        -50.45234204  Gyration_radius:  2.54425806412 Dipole_moment: 2.492
 S          -0.44292054052469    0.43343735434599    1.47801108061200
O           0.26954949331823   -0.86528762629543    1.47932203760862
O           0.42503338965678    1.47151536600181    0.94330221248614
O          -1.69945264664219    0.33251277319278    0.76680362816511
O          -0.76311967255024    0.76203252065827    2.95838269257720
H           0.14711797545584    0.82581243229139    3.35454357790958
O           1.71109654313704   -0.73003249111623   -2.04278765550959
H           2.59649536299184   -0.56440934816874   -1.71604755836862
O          -2.26474030857052    0.77371580563880   -1.69413854245612
H          -3.13955301463789    1.16265449881276   -1.74063845496453
H          -2.07255214073707    0.65821671569159   -0.72359700779582
O          -1.79006619448356   -1.81841198815470   -2.11735398001961
H          -1.43225422216825   -1.87859600273454   -3.00605319383568
H          -2.05421323002138   -0.87902580841927   -1.98576599899834
O           0.43627294626660    1.49019702336962   -1.69913683454906
H           0.47516216513400    1.59610782841936   -0.72220878662306
H           1.23090140791140    0.15277334433811   -1.99344045961704
H          -0.50454737504368    1.39970366761750   -1.90793751973995
O           0.23488999237232   -2.18755904861354   -0.57658693304842
H          -0.65398624553813   -2.10832735174729   -1.06409881166957
H           0.89847713875423   -1.66716141592815   -1.16661814585749
H           0.19697572345327   -1.63036912374422    0.37124102020940
N           1.81533954464943    0.83577777177662    3.32254017730470
H           2.06804439494567   -0.13174392325489    3.16663163721201
H           2.52290131748204    1.27200819949433    3.89964525727331
H           1.78914818539019    1.29445881652870    2.41598655169633
