    26
        -50.45234210  Gyration_radius:  2.54420915491 Dipole_moment: 2.492
 S           1.44709393292050   -0.68969232063103    0.01242983176554
O           0.60676382501064   -1.38240813008859    0.97723688799074
O           0.82388919541183   -0.74942962247166   -1.33014414950110
O           1.72519906500765    0.67888034715531    0.39253051992731
O           2.80204453602113   -1.43414213624480   -0.09703876646073
H           2.51045764836431   -2.35298857682555   -0.34240289078734
O          -2.73298570212758    0.19436548953731   -0.35166008689298
H          -3.04629934087599   -0.70270182655784   -0.47511010468217
O           0.30908042377737    2.36733308972327    1.70172561754997
H           0.89467499186319    1.70309027795957    1.24552797559701
H           0.89328817348134    2.89636437240725    2.24724198573718
O          -0.63406349372386    3.18776082540128   -0.65615501524057
H          -1.53888346417028    3.46521521668139   -0.49555325078312
H          -0.24830840006169    2.97031348489165    0.22336128111249
O          -1.37220843238265    0.13978995628413    1.84344641142518
H          -2.27468929308414    0.20395304705678    0.54399005877520
H          -0.65490637539560   -0.49460017208504    1.61957789962955
H          -0.92445838832605    0.98178296051106    2.00926629039795
O          -0.85191481960572    0.94113093296855   -1.88712346204889
H          -0.05057685748996    0.21990172982919   -1.66858631166280
H          -1.66230443768861    0.61336985249620   -1.34398840655285
H          -0.62598287673765    1.84701339387006   -1.48395694165879
N           1.39688660247896   -3.55760170897665   -0.64781046416992
H           0.79295284191745   -3.17398763685797    0.07404532336979
H           1.41777204019308   -4.56611644843809   -0.56760529660458
H           0.99747861522144   -3.30659639759794   -1.54324491622889
