    26
        -50.46154479  Gyration_radius:  2.43324290076 Dipole_moment: 1.390
 S           1.89927234709783   -0.98724673678818    0.01242566805447
O           1.81940462022371   -1.06368851631431    1.45604259035115
O           1.03386776443855   -1.97066031423937   -0.63341770325602
O           1.67188531744341    0.34777715275699   -0.50948321325675
O           3.38378371757716   -1.36011649524164   -0.37788775963965
H           3.58215288543711   -2.09913002595740    0.18803874073560
O          -1.84059962455225   -0.33391031657535    0.79085082818860
H          -1.53823310647165   -1.14885539588717    1.25771866948322
O          -0.46643383568731   -2.40131761082552    1.72091509034991
H          -0.37114736090899   -3.00862791512194    0.98239446804610
H           0.39479088369945   -1.93952271283761    1.77386188904094
O          -0.14112202477974    1.23575313445843   -2.26402143960580
H          -0.64426624364465    1.88548002672299   -1.69195102634399
H           0.70275722647049    1.08029975371884   -1.79912969251578
O          -1.09236496010195   -0.93282636857906   -1.53174617740067
H          -0.74519648579073   -0.00093411291647   -1.96398204342696
H          -0.24041509983156   -1.43032406952186   -1.27159585278802
H          -1.52050603359576   -0.67147629861224   -0.60488808114243
O           0.21795398951403    1.25455809673711    1.49226003843511
H           0.82151674168701    1.03156446839762    0.75249959269432
H          -1.20253279270368    0.35672634171826    1.07715199864267
H           0.60607776753413    0.81225011637254    2.25280690736970
N          -1.46751335347880    2.72064563271125   -0.49504501903863
H          -0.89929368392776    2.58958257427600    0.33582335585626
H          -2.37830041261423    2.31945148865398   -0.30744488617576
H          -1.58553822309080    3.71454809283001   -0.64219694264675
