    26
        -50.45591210  Gyration_radius:  2.49167002483 Dipole_moment: 3.166
 S          -0.74109753216326    0.72341603829558   -0.65669504108537
O          -0.13272960880309    0.66890384101524    0.69286854794991
O          -0.19233892258304    1.81873270315428   -1.41639223885898
O          -0.62553167460275   -0.57619597855741   -1.30356783218841
O          -2.26298146612253    0.95117490583252   -0.43846897636405
H          -2.30596015177313    1.88697082954862   -0.08592851279864
O           2.05995398606019   -2.35765470444107    1.07140578850913
H           2.22053624366224   -3.29434274830650    0.94923213007619
O           2.32572145994979    1.32927287691184   -0.61040867463299
H           2.07282154011382    1.27332267177678    0.31584484224944
H           1.52196788048912    1.63969346726849   -1.06489935242343
O          -1.67218849902232   -2.57520500737838   -0.03637395898468
H          -1.42350541491784   -3.36672629552526   -0.51801232567162
H          -1.43390768873379   -1.81056132866810   -0.61895078772735
O           1.98679445595790   -1.25762885549535   -1.25606085763536
H           2.35978475862757   -0.35844713406921   -1.13916693053933
H           2.11524273570550   -1.93333492156270    0.15675755329390
H           1.04151954426650   -1.09905289798509   -1.43310720558994
O          -0.21616410732920   -1.53098905284518    1.78944403668642
H          -0.20296658833054   -0.53035724090297    1.37255618366649
H          -0.85594835169670   -2.03982922903928    1.18334910408728
H           0.73440488897168   -1.89688267859903    1.59042555278064
N          -1.76150551573607    3.38176817556239    0.34182614998565
H          -2.25299585403938    4.25336143988396    0.19179573468279
H          -1.01276547445169    3.30136680438596   -0.34151673743101
H          -1.34616065349035    3.39922429979515    1.26404381795108
