    26
        -50.45591205  Gyration_radius:  2.49155286367 Dipole_moment: 3.168
 S           0.66049469757414   -0.36540146884420    0.96753466071364
O           2.09483747413380   -0.46607597626222    0.86445637896342
O           0.18030151667698    0.89029230240405    0.34546908872592
O          -0.06447705375477   -1.50018867031014    0.41298628518507
O           0.24914797074033   -0.29372209031376    2.46464853131718
H           0.83688292623589    0.43005617947232    2.82862096595590
O          -1.76617354683717    0.19314840679052   -2.79152946984853
H          -2.42468927070121   -0.31031298661843   -3.27213435952924
O          -2.64089655952369   -1.42825602682242    0.64459640585929
H          -2.98271260456586   -2.17006974998626    0.14138460691855
H          -1.66227100972891   -1.56588254012377    0.70992847849749
O           2.13601927314818    0.39618850375233   -1.68209103569255
H           1.57246671557457    1.15130545628574   -1.48910777018701
H           2.34211847573801    0.01570288402648   -0.80934152287635
O          -2.16677110666652    0.86281909245092   -0.38921404102165
H          -2.06378750196013    0.66310436458398   -1.40232052568191
H          -2.50821599887673    0.00663341627495    0.04232220435504
H          -1.14586660207704    0.94400466870942   -0.03414593337427
O           0.20595132245177   -1.37933727985262   -2.27095186078229
H           0.11109414708519   -1.60319777762920   -1.32708021943172
H          -0.97024681396829   -0.41584259834779   -2.66837839256894
H           1.01051912095067   -0.81984804795913   -2.30190469242543
N           2.03907964134672    1.55652186978274    2.84004134218883
H           1.75421084585909    2.43774202223945    2.43322432610753
H           2.53831001286090    1.02652963669752    2.13023818102023
H           2.66467391833726    1.74408640960245    3.61274833755977
