    26
        -50.45469726  Gyration_radius:  2.51005958139 Dipole_moment: 5.575
 S          -0.65047769369594   -0.38528131060409    2.07920811583732
O          -0.44847682069779    1.08104410465907    1.63464492403037
O          -0.17444848211440   -1.25195441416366    1.01451269901937
O          -0.02304378029902   -0.55994523151174    3.34097108333673
O          -2.16952385968316   -0.54223333931904    2.19124020731371
H          -2.57663638239619   -0.37397931337232    1.23900764492283
O           2.39354888242323    1.17701907105552   -0.57927475228414
H           3.09669773728579    1.81803085898715   -0.46578453819886
O          -0.64930621458184   -1.10016654454474   -1.59775018970943
H           0.19995030499025   -1.20169171781669   -2.06504121209715
H          -0.46331439910175   -1.37450901829150   -0.67876377912990
O           1.90382275979726   -0.76838761778313   -2.51221544469054
H           2.18793793215409   -0.41471459643922   -3.35598557873143
H           2.18060702455090   -0.13145497056613   -1.83134340749625
O          -0.32229934249505    1.41961647530038   -0.86766926543525
H          -0.45101493833792    1.22834088944839    0.61535232115285
H           0.64572963705926    1.52216267856386   -0.89945470209472
H          -0.49737263412888    0.51994570110061   -1.24878698175239
O           2.25998641243861   -0.33435457084200    1.60711348651422
H           2.37370050945812    0.64401451623835    0.25259515710599
H           2.00067540682319   -0.08212964958581    2.49880250050672
H           1.54620849289103   -0.92493207067275    1.31363187063723
N          -3.02590887171524   -0.04930070412035   -0.17223007545801
H          -4.01158862222862   -0.22563470588521   -0.31513521138744
H          -2.49229170464650   -0.61444574485929   -0.82618069362658
H          -2.83316134381449    0.92494121505874   -0.37146416824972
