    26
        -50.45632300  Gyration_radius:  2.51318681895 Dipole_moment: 2.104
 S          -1.83651427595685    1.29972754208680    0.09326906713309
O          -2.42728141818907    1.47620374627037   -1.21048704069656
O          -2.09304009915893   -0.02811624273257    0.64482813650633
O          -0.42308970976240    1.63226350007376    0.16662655679255
O          -2.56120439931732    2.32981392225125    1.05573682240618
H          -3.45790950070649    2.28140706313600    0.74314530842974
O           0.56705393536239   -2.30554034604186   -0.08723318951157
H          -0.16419955299966   -2.76334306970975   -0.50729785318971
O          -1.51415743486240   -0.39725563222985   -2.82979077681862
H          -1.67846754910735   -0.07811634883997   -3.71899574784497
H          -1.94645948986391    0.25103290091410   -2.22987100820383
O           1.19597442023907    0.80371760123336    2.07917963762605
H           0.65268998180616    1.33397898758148    1.45626549861373
H           1.97958977797185    0.48489348177460    1.53908035467578
O           0.77187617293383   -0.09091240517655   -1.47758585098320
H           0.06406845480215   -0.25975363558662   -2.13376162321496
H           0.40827300018102    0.61981592493949   -0.91216273435428
H           0.72140791401458   -1.48864557235268   -0.63895839774361
O          -0.32233565777632   -1.13937511651196    2.00839013948603
H          -1.12706677476838   -0.69073050678820    1.53645599827650
H           0.08597461101879   -1.70849998835189    1.26420608754838
H           0.38455543391209   -0.30377222432421    2.15986519016152
N           3.03997496015539   -0.20067350430867    0.45286699068985
H           2.57926279684822   -0.05885054761006   -0.44084389045726
H           3.13405655377221   -1.19957821873373    0.58941542429177
H           3.96696785945636    0.20030871903122    0.39765689038264
