    26
        -50.45632276  Gyration_radius:  2.51296368617 Dipole_moment: 2.108
 S          -1.63493406852991   -0.92610134156275   -1.24259016740205
O          -1.11636312914331   -1.95189821185830   -2.11384663160742
O          -1.71194367854513   -1.36496276423006    0.14835925272163
O          -0.95883233856449    0.35646487556449   -1.34961446731231
O          -3.12579043544375   -0.65580123050649   -1.70800087112881
H          -3.42113745953281   -1.53563570305855   -1.91486031712094
O           1.23111737924814   -0.45993156678929    1.97411149508563
H           1.25867996345496   -1.41370669338344    2.07526364186954
O           1.25864609512163   -2.70152340042509   -1.24111124850439
H           0.33858438871654   -2.51516962997497   -1.53418284145580
H           1.68179073069975   -3.14406749090932   -1.97911547879392
O          -1.06093530252065    2.24283259272144    0.49365874488369
H          -1.13077178270726    1.71339808722863   -0.33046630986262
H          -0.09087061291818    2.48921124242686    0.56645024579276
O          -1.21983563961369    0.27091320920834    1.96790894977585
H          -1.52818784545244   -0.42373800089957    1.26496298413209
H          -0.23786621117309    0.02572174983538    2.11064761327077
H          -1.20591776492098    1.21899893648314    1.40200309436378
O           1.55535946658352   -0.12107469676476   -0.60657485465699
H           1.42564991938543   -0.28931113233441    1.01047007932301
H           1.66070592148173   -1.06068496975709   -0.86338081400082
H           0.67696607290356    0.12556085870256   -0.95956389108997
N           1.56870378840139    2.55800692100621    0.70029292114819
H           1.88751250146988    2.32139658762331    1.63177564194400
H           2.01781124972413    3.42029698580047    0.42121017920956
H           1.88185878187232    1.82080479585212    0.07619304943118
