    26
        -50.45632304  Gyration_radius:  2.51365675222 Dipole_moment: 2.107
 S           0.44984922109478   -1.70799430811516   -1.39809147840929
O           0.36518733116085   -0.44133815264862   -2.12022466846071
O           1.80932669536253   -2.16580102325127   -1.24923272104979
O          -0.30921611865097   -1.65484906374262   -0.15918560787953
O          -0.28772502095957   -2.78451744809308   -2.29792125628415
H           0.39437027538515   -3.00598245918915   -2.92227951058937
O           0.32712482237393    2.34828972450111    0.12046871773829
H           1.11567586106803    2.55060225308034   -0.38733155190131
O           3.21760164194125   -0.30846023067270   -0.01099147291301
H           3.99673977005251   -0.75266487148908    0.32831094607818
H           2.74703679123016   -0.97668873059232   -0.55790104362105
O          -2.51298370401045   -0.23998629616603    0.17162140839051
H          -1.84463762967197   -0.95544591114152    0.09631770049222
H          -2.32028928689948    0.20860994129535    1.04858572213633
O          -1.36100456828948    1.22879099515814   -1.44157654521173
H          -1.98537607765836    0.62459267023535   -0.75963232912221
H          -0.76852902627949    1.79869599115032   -0.83461549337445
H          -0.69298776484066    0.53987375251708   -1.83015007409129
O           0.96360721419214    0.12600847810436    1.36012969700636
H           1.88465624963187    0.03615846684979    1.03838133028263
H           0.56027362037242    1.54515218000078    0.66463860855841
H           0.47938949639210   -0.58819003493520    0.89903633550352
N          -1.69631873031358    1.02057855108524    2.36220350796986
H          -2.14414400493167    0.86378010713682    3.25555966750980
H          -1.64311391963363    2.01947103725137    2.20501080445567
H          -0.74451314811086    0.67131436167166    2.41886931679363
