    26
        -50.45632310  Gyration_radius:  2.51319070943 Dipole_moment: 2.107
 S          -1.34974834199000    1.77724399132012   -0.30683695109721
O          -1.38825493696224    2.61829751967774    0.86414870771937
O          -0.10371094030890    1.92209746466246   -1.05476823849355
O          -1.64876856432820    0.37685145491036   -0.05544272889354
O          -2.50592171164283    2.28941677375450   -1.26251441765799
H          -2.45211851040158    3.23016219824615   -1.13544191885685
O           2.31318124368536   -0.52483601443192   -0.06925066436746
H           2.79152282475302    0.27987141437987    0.14135782152740
O          -1.00274311330593   -1.59258124229123   -1.68976391866260
H          -0.60425304232722   -2.25094212835992   -1.04561636876673
H          -1.47225892007831   -0.93640913623715   -1.13009417550024
O           0.68342428009149    2.05132505065381    2.39800983284412
H          -0.04153624655465    2.35245829879462    1.80561017401118
H           0.47009303250167    2.39766532944266    3.26638778676548
O           0.89492189686191   -0.08504831418248   -2.15164006073151
H           0.48044891697334    0.79741524541834   -1.80334809756229
H           1.55501960393333   -0.33105430837376   -1.41107055042755
H           0.06721039404314   -0.81039164464269   -2.06000039358912
O           0.27712231533003   -0.46261428101365    1.58329554464876
H          -0.50199937479946   -0.22101524825847    1.04314068353565
H           1.56873460955539   -0.57263082469698    0.59330264344330
H           0.50223495668836    0.36316299033413    2.06008463113870
N           0.22720361024111   -3.07068527305541    0.14279743256001
H           1.20588407567110   -3.19048734321031   -0.08760696059080
H          -0.14314382644196   -3.96757607610313    0.42847540540210
H           0.17745577881270   -2.43969589673688    0.93678479159554
