    26
        -50.46400457  Gyration_radius:  2.43635735923 Dipole_moment: 6.310
 S           0.84443274767251    1.06760953923125   -1.79545282664031
O          -0.54435917319813    0.72852999903571   -1.47613029822199
O           1.24086120580152    2.35144272731030   -1.26377682414924
O           1.75804013558616   -0.00166257553688   -1.46885730602616
O           0.85107669690907    1.21228198912560   -3.38021235720255
H           1.74208494511209    1.50701614038164   -3.53468550695414
O           0.98470460566508   -0.92026666094611    2.07469486578049
H           1.56953863317084   -0.95382807708698    2.83252987215157
O          -1.75074402969341    1.65824376114035    0.60638143981708
H          -1.28333659279594    1.37654297318915   -0.22849057180839
H          -2.40923701137281    2.29784984077034    0.33259533514686
O          -1.21126793457109   -1.77988129316137   -1.00300331989451
H          -1.01403669273673   -0.89398996857497   -1.38200695200607
H          -1.53460169340278   -1.38076080998090    0.34544189344993
O           1.25739949740430   -2.34987308267793   -0.35697655588259
H          -0.31233167870040   -2.18671439318857   -0.86816176296184
H           1.57733975522207   -1.57156035341459   -0.85911039870288
H           1.29745538676006   -2.06266199270852    0.56597203518741
O           1.00141892026653    1.54527976262559    1.22024630907851
H           1.09995219372339   -0.01115799542082    1.68216228662367
H           1.26701516716597    1.83748561017695    0.32295803395784
H           0.08303667434667    1.83339391916440    1.30313227821377
N          -1.63226971853095   -0.94232583390330    1.36995083635678
H          -1.83823740985549    0.06615282862443    1.22897367799081
H          -0.69552156355087   -1.02624410114377    1.81143078110174
H          -2.34841306640927   -1.40090191303737    1.92039503559552
