    26
        -50.46400455  Gyration_radius:  2.43642799978 Dipole_moment: 6.303
 S          -0.54326403620516    0.78529158159180    2.04118540741264
O          -0.63654047219924   -0.57574435492444    1.50763780695140
O           0.74095178524762    1.06064627503154    2.64363757309648
O          -0.95697631860754    1.77970141691517    1.07946767221064
O          -1.61165044533274    0.81116259834640    3.22021327378492
H          -1.46252136285279    1.67687003658636    3.58481911066051
O           0.97907600714463    1.01908206185726   -2.03105841102808
H           1.55584684465125    1.59064265877150   -2.53911277678760
O           1.43572583742142   -1.89715262051691    0.72214598177017
H           0.66485095125516   -1.39164017192739    1.10291234714851
H           1.61879276252782   -2.60094032846447    1.34565713559675
O          -2.02241051198328   -1.03532855721814   -0.68948207091558
H          -0.78509498916133   -1.41764109855513   -1.32416306033523
H          -1.69134204541277   -0.90688198698187    0.22778485754166
O           2.01031793063501    0.84130692060382    0.35928789336823
H           1.56551670260304    1.09889564526293    1.19408341623832
H           2.19788238082136   -0.10000441448215    0.46937680150626
H           1.31036560166110    1.06365836777775   -1.09182474895670
O          -1.75338344318467    1.45950820401931   -1.42326477885590
H          -1.57666120558628    1.72192419530268   -0.49580526687529
H          -0.87757825277143    1.45683709511998   -1.83427662685255
H          -2.13226070683129   -0.10776099401345   -1.03520380021481
N           0.25738854242236   -1.57258506982326   -1.70030390612514
H           0.30216953941619   -2.25769407472696   -2.44512318260611
H           0.81735338667021   -1.86112494295047   -0.87430813567431
H           0.59344550764992   -0.64102844260107   -2.01428251206039
