    26
        -50.46400451  Gyration_radius:  2.43631374669 Dipole_moment: 6.309
 S           1.49780812396878    1.64303950678551   -0.36408501465532
O           0.95980905359938    0.64500091716785   -1.29164975538919
O           0.69496741658347    2.84326338196139   -0.30985099578004
O           1.79013934412069    1.08247588896827    0.93401099322992
O           2.89070419214877    2.05927811069858   -1.01147773284015
H           3.16182678374640    2.76094318684947   -0.42947348628983
O          -1.32524308429331   -0.71576586863731    1.96255274075009
H          -1.85065625099658   -0.61045779204092    2.75647126927383
O          -1.54982346473074    0.51298552168210   -1.87467787732841
H          -0.57761127642481    0.63686507432107   -1.68915251292114
H          -1.68348319592755    0.81443600854082   -2.77408520563853
O           1.18262771432264   -1.92426539884616   -0.73569990075375
H           1.28648792392306   -0.99625123738923   -1.04454505478726
H          -0.25660496706344   -1.97306655440457   -0.65014522318401
O           1.42374891949332   -1.38674646736580    1.81159769183361
H           1.70657265160522   -0.47251916860597    1.60074468782055
H           0.50151588174712   -1.28652958219327    2.08617586598456
H           1.42706115236561   -1.88302820656099    0.22887976935102
O          -1.35754967592449    1.58308692091510    0.72840397349467
H          -0.57020930359012    2.12265314662096    0.50493152287074
H          -1.76457346838885    1.38934001825200   -0.12612506031960
H          -1.23852702080546    0.19677681571732    1.57060406870218
N          -1.35672484835605   -1.82440693670978   -0.51055445337014
H          -1.48717778907431   -1.54134600875474    0.48053735657388
H          -1.89105969343291   -2.65475964713562   -0.73664097553143
H          -1.61402511861673   -1.02100162983509   -1.11674670109401
