    26
        -50.45632275  Gyration_radius:  2.51314733806 Dipole_moment: 2.105
 S           0.10470114808903   -0.60547594326675    2.16758203364344
O          -1.19875730438030   -0.03408831556559    1.83960941049487
O           0.05395503858932   -2.03918010356237    2.31575319263661
O           1.12981901682651   -0.12815828319710    1.25381630844795
O           0.50236634884047   -0.02330774761141    3.58714767168851
H           0.01355650776171   -0.59522752325733    4.16855895794924
O          -1.62971818132685    0.30484322204084   -1.69595623251580
H          -2.36216297858293   -0.28018857408307   -1.49082148155769
O           1.12228278916501    2.26265507086218    0.13532113625092
H           1.33553874505985    1.45440679138255    0.65059176046403
H           1.32180929246172    2.02642560228082   -0.81947609307774
O          -0.88849214433139   -3.10201789365585    0.09141174305270
H          -0.63669347854579   -4.02703396875689    0.11478036436481
H          -0.62706341111874   -2.73260774086618    0.96452687822682
O           0.47685937331134   -1.14815438171776   -1.11970991388472
H          -0.80658141248161   -0.24189186896068   -1.55843868339902
H           0.82692038578861   -0.79406021243447   -0.27758128158289
H           0.01614696905835   -1.97250300308158   -0.85877423930490
O          -1.31497202717615    1.90593317675216    0.27367013869267
H          -1.50793214826526    1.37993944645042   -0.58108761618025
H          -1.32315931540171    1.16927912611571    1.00101035282102
H          -0.24963167287222    2.19054823154681    0.20910958559825
N           1.41225798770256    1.39505403862979   -2.35837641867473
H           1.36730324976175    0.39305848838582   -2.19996417186238
H           2.25031628472207    1.59369649278576   -2.88880771225876
H           0.61133094733595    1.64805586277900   -2.92389571003856
