    26
        -50.46400453  Gyration_radius:  2.43662519292 Dipole_moment: 6.306
 S           1.58750169075671    1.42270623025565   -0.73148596552754
O           2.61156595129338    0.54035978279722   -1.24224485586311
O           0.26359430577837    1.13257357414364   -1.28730485524875
O           1.56822628144834    1.51455735842943    0.70937602166538
O           1.92655736822741    2.87668309068154   -1.28188872473169
H           2.81502461870265    2.99185937975787   -0.96278550774986
O          -0.13856578591940   -1.60862941427390    1.87489894672368
H           0.17155424531688   -2.27597599423919    2.48801907121797
O          -1.88612109882202    1.42724696486332    0.21319646795218
H          -2.09035262688896    0.00325807053650    0.10261807214785
H          -1.12359257720747    1.52097355583006   -0.40098164020958
O          -0.39581368391100   -1.21408611958073   -2.13300300439306
H          -0.08702758387628   -0.30307002418010   -1.86928090720089
H          -0.45596454834284   -1.20149541551111   -3.08897568184495
O           1.54558031693713   -1.57500834895562   -0.11752459446384
H           0.57790854401279   -1.51604436520725    1.18781439661247
H           1.00945113805796   -1.80549153128008   -0.88745484727102
H           2.06855956249185   -0.79907182015643   -0.41006417182110
O          -0.45115298766703    1.16157562582310    2.38289334197967
H          -1.47288651068957    1.48829345084192    1.11718917648693
H          -0.38120208962214    0.20000120011431    2.46330424274264
H           0.35654956528504    1.41537201278095    1.88959437635370
N          -2.04786807313662   -1.11136906615118    0.01670127900586
H          -2.96696049102376   -1.53653659044406    0.04191118931464
H          -1.45076852534904   -1.43971627409220    0.80099138026004
H          -1.55379697585214   -1.30896533278463   -0.87551319613762
