    26
        -50.46400445  Gyration_radius:  2.43629053051 Dipole_moment: 6.308
 S          -0.67411905192601    1.72721592739466   -1.28058130528650
O          -0.72925059632893    0.28794595936758   -1.54763096697067
O          -1.85031166660752    2.21232791365080   -0.59567077828903
O           0.56515252360766    2.12027673215717   -0.65229982826874
O          -0.68743140712571    2.38857959784078   -2.72794758547878
H          -0.73326285279896    3.31266283009316   -2.50749530446973
O           0.98087710644751   -0.18367672879159    2.26416266850011
H           1.10605770936314    0.02998802701614    3.18944058232324
O          -2.09398359692235   -1.33850382926263   -0.08143231271880
H          -2.85977632220856   -1.64130622796424   -0.57084942867498
H          -1.63853944656894   -0.67706833407478   -0.67289549136604
O           1.47933311480690   -1.15155136059726   -1.45627210432275
H           0.90910642757968   -1.85509100825067   -0.33378880248347
H           0.70554137459275   -0.59421886325399   -1.69749982453397
O           2.61436257199971    0.62197330734371    0.09373659168537
H           2.27703191358677    0.37421697328050    0.96599262646558
H           2.09213909453980   -0.51958769031734   -0.99053477095090
H           1.98521817928612    1.30671653205193   -0.21534292243278
O          -1.32409617351439    0.82032218054614    1.56445501026036
H           0.16516294430226    0.31281255379291    1.97808551764345
H          -1.46859353165105    1.48147638922577    0.85533949288972
H          -1.84376411529611    0.05465734480634    1.28686317923107
N           0.38328331630078   -2.22385608861207    0.58256556577053
H          -0.63035599451498   -2.08249116930704    0.40459512361828
H           0.67096976294589   -1.59214659046166    1.35551437583788
H           0.59924873610924   -3.19167437767867    0.78949071201722
