    26
        -50.45388629  Gyration_radius:  2.45372061387 Dipole_moment: 6.308
 S          -0.19735787660530    0.20190174431386   -1.04106920341830
O          -0.82144300970600   -0.08397511416362    0.27887013108560
O          -0.43915711591207    1.59362812093370   -1.39223142056662
O           1.20051536962070   -0.14855882634313   -1.00916997852088
O          -0.90546476374969   -0.71826894169427   -2.06355189578282
H          -1.84740156229903   -0.38072718417734   -2.05979525293497
O           2.86611535639202   -0.47715609283833    1.21152919074406
H           3.00952414272823   -0.06144547170544    0.35158791147119
O          -0.79967745468065   -2.58475836432430    1.21208679824946
H          -0.95407012762525   -2.49240067587269    2.15375982076780
H          -0.92684913467724   -1.69727876896672    0.82124823579946
O           1.06756285832028    2.84383343512421    0.32767379930418
H           0.65646218546008    3.69624637856690    0.48488199719268
H           0.56467328484622    2.42448083829206   -0.41642357185396
O           1.71779271990923   -2.54148482863343    0.16947591354090
H           1.49802085971452   -1.90767459959906   -0.53425646880251
H           2.51343053653332   -1.38807577481370    0.96437981222400
H           0.86244698520987   -2.78446552082042    0.57068634593683
O           0.86556287236825    0.82154620013123    1.88452658233023
H           1.77241868222493    0.22651016653381    1.66981881298385
H           1.02279546816693    1.70805784207747    1.41615682035950
H           0.11667946085934    0.39582577654847    1.30088217768492
N          -3.09248568584943    0.62902768704221   -1.67822798829905
H          -2.42950002516452    1.39142143631366   -1.56618714291519
H          -3.47697891542291    0.40819708863924   -0.76926165069764
H          -3.84361511076817    0.92559345934710   -2.28738976583408
