    26
        -50.45023527  Gyration_radius:  2.5114144211 Dipole_moment: 0.816
 S          -1.71279858919632   -1.02515820807853   -0.44316118393185
O          -1.58156030113543   -0.69199222464159    0.95794459645902
O          -2.00887009087256    0.10140540366212   -1.30030335586507
O          -0.55310418347095   -1.77829371562622   -0.92985561426356
O          -2.95028792715042   -2.00411630949442   -0.55898398647215
H          -3.13333564884938   -1.92928782552318   -1.48893593261778
O           1.55110721438236    1.64638277366895   -0.78311945455458
H           2.01168955879626    2.28510145959990   -1.32960820924025
O           2.63432371228794   -1.97308746847869    0.11632661717604
H           2.16308308534758   -1.37807120073291    0.79834743653132
H           2.16565784863358   -2.81069497553095    0.13289178008088
O          -1.60762287140415    1.79593863530733    1.90868527285236
H          -1.61663526544291    0.85499212595392    1.63380599218453
H          -2.50152742211598    1.99812394232349    2.18866088186905
O           1.52531363371122   -0.70532756497946   -1.73546847564393
H           2.13014146108862   -1.24300361424190   -1.06082835813241
H           0.58634356836583   -1.10792785621890   -1.50163259839538
H           1.53295508953138    0.26749329842125   -1.38474439855335
O          -0.88124933324417    2.39902154168517   -0.62468283576146
H          -1.36478599516167    1.62781591726249   -0.98913660976034
H          -1.10807670391435    2.39975320491988    0.32688271166763
H           0.59127498710527    1.97849009297033   -0.71618688270848
N           1.21069353559192   -0.36189519510480    1.58281796127085
H           1.36477652708215    0.57412211391345    1.22341253030006
H           1.31507379476033   -0.31945503689925    2.58858386023035
H           0.23742032527603   -0.60032932413855    1.38828827527438
