    26
        -50.45023541  Gyration_radius:  2.51121963323 Dipole_moment: 0.816
 S           1.50582558698690   -0.84138982316098    1.09735159410097
O           1.21043959294087   -1.55796955579122   -0.12350775255773
O           2.17579096868836    0.42498998962582    0.90002430709089
O           0.31371333629123   -0.69137705313702    1.93719916916429
O           2.50909853382558   -1.74737784005993    1.91950368367705
H           2.86030188512242   -1.10029815832965    2.52102482594575
O          -1.00670549731578    2.06345766515680   -0.67906755646050
H          -1.21930110939475    2.99384172079514   -0.76817124824387
O           1.59541318964496   -0.56683414147636   -2.56545755263940
H           2.44870308210249   -0.87030999480859   -2.87865913348600
H           1.45343296244852   -1.00525810706736   -1.70016908663440
O          -2.97221549549278   -0.67852510649991    1.24414460186430
H          -2.70233632387780   -1.37533046501283    1.84677240444302
H          -2.51001103778494   -0.88404111079707    0.35801566063876
O          -1.31609831125840    1.15013691084416    1.66793763352842
H          -1.17744872732219    1.55714141563563    0.72739100753525
H          -2.12891424970722    0.48833256405006    1.56124593098019
H          -0.53941907940568    0.46343871202312    1.82192555088627
O           1.46459289099833    1.79268235580722   -1.25205650578849
H           1.82856632793984    1.40076586056040   -0.43032262722913
H           1.51782077018786    1.07025563519882   -1.90944878833577
H          -0.02508044100724    1.97687349017714   -0.93354778783841
N          -1.51316188762491   -1.01175949901981   -0.88520886618231
H          -0.59438265885189   -1.30040426985329   -0.54697042097915
H          -1.40000202979976   -0.09709200482087   -1.30896005430440
H          -1.77862226833018   -1.65394917002681   -1.62098899917919
