    26
        -50.45023524  Gyration_radius:  2.51123437744 Dipole_moment: 0.809
 S          -1.96259089857252    0.56938834407301    0.03861201225687
O          -1.63402785765107    1.30102235955163   -1.16492613388926
O          -1.77737557036347   -0.86116262344474   -0.06226846983066
O          -1.27073914731235    1.12218661107209    1.20684713745833
O          -3.50633465464647    0.80709591201192    0.29107450661395
H          -3.57354915245704    1.72418129316249    0.04955135746364
O           2.19038863153490    0.58253237494469   -0.77046840342020
H           2.93068124410241    1.05128495470699   -1.15902043123607
O           1.37373785778002    0.07671237382835    2.99207299329539
H           0.56445015020478    0.15755075414698    3.50201100554083
H           1.19904763840437   -0.66192768246427    2.31012774212429
O          -0.67977802569119   -2.07986434254440   -2.16124088983355
H          -1.11644282250751   -1.70294578743210   -1.36866289080390
H          -1.38646176494103   -2.37212005421978   -2.73869864010381
O           0.40058020708877    0.36396322203635   -2.57532641240875
H           0.14297417134854   -0.57944499641271   -2.59647520616256
H          -0.36648909304073    0.81624855391936   -2.16491568649891
H           1.50064035229099    0.48757870202408   -1.51285074824772
O           1.11169076242182    1.78820528335997    1.18431081231542
H           1.55755055763560    1.33252125078626    0.37001112307750
H           0.08187785907300    1.60801797818655    1.11032431556768
H           1.34815724624030    1.17123310740323    2.00502574441996
N           0.79445413253215   -1.54449498350811    1.04010627510357
H          -0.16174043888626   -1.31520148594813    0.76618533479858
H           0.84441119098391   -2.54971859280985    1.14640634682458
H           1.39488744443984   -1.29284252643106    0.26218720557123
