    26
        -50.45007100  Gyration_radius:  2.54151812584 Dipole_moment: 1.822
 S           1.73038208030852    1.19141721068292   -0.24161983672998
O           1.11374385913981    1.53153232599774   -1.50010900106972
O           1.18424231952144    1.87610582541918    0.91169108764941
O           1.74707105359426   -0.26212014005755   -0.03576126641559
O           3.24571256964802    1.64568213984629   -0.31448767307832
H           3.33735706708993    2.02727887380941    0.55134305925234
O          -1.52326994843964   -0.15907920281444    2.43487491199590
H          -1.42090074179085    0.20589688070833    3.31552680536933
O          -0.44364973581755   -3.16579025123835    0.01862742026526
H          -0.47720130683630   -2.49632559046506   -0.74975879575184
H           0.21709432928310   -3.81869989162123   -0.21892483982941
O          -1.49458459816170    1.44302632979879   -1.77762332823563
H          -1.78307131217304    2.18907539362494   -2.30586362443267
H          -0.51107987164914    1.50064869342023   -1.73936009516713
O           0.46022230134509   -1.51699692491073    1.69532582038137
H          -0.35706933078940   -0.94666805402510    2.01652814392782
H           0.05942774975877   -2.26215323470403    1.07995284643738
H           1.02826568139953   -0.94088810813131    1.04658448308851
O          -1.46671534550570    1.90556201856384    0.90957427102595
H          -1.67018750967894    1.71885628149975   -0.02588680408434
H          -1.59461161691660    0.63560020181139    1.81635059984051
H          -0.49586959094657    2.03483435650727    0.94226557863032
N          -0.28215551534168   -1.31591083698139   -1.80703125741674
H           0.52532440589319   -0.81673107157922   -1.43497592331638
H          -1.05164961461258   -0.65394885392901   -1.81699503027925
H          -0.07682735831998   -1.55020437124262   -2.77024755207094
