    26
        -50.45023527  Gyration_radius:  2.5111909987 Dipole_moment: 0.811
 S          -1.05515590788806    1.66734657188863    0.53407331514354
O           0.36957299070435    1.79134330883220    0.74840849866640
O          -1.45540421505239    1.69539411720189   -0.85539257743748
O          -1.60532338327396    0.49811051060406    1.22621378737795
O          -1.72407411130868    2.93140582799486    1.21084523282092
H          -2.57104484840414    2.92129414337182    0.77910002668736
O           0.14686996135247   -1.80167697908306   -1.56966524895684
H          -0.03908210740144   -2.41036265050528   -2.28635784983314
O          -0.23927389878723   -2.39374916174219    2.24852817432141
H           0.53624832419278   -1.84577682879684    1.87503710888300
H          -0.61392184445367   -1.86597714135270    2.95747899618809
O           2.17783272665659    1.80429686504095   -1.20728477056919
H           1.56833036851198    1.83457536448390   -0.44009508679252
H           2.37382428278546    2.71661773457595   -1.42536846105340
O          -1.61839191083119   -1.77626762820339    0.25297096467117
H          -0.92826721008758   -1.79223268768589   -0.51700818673060
H          -1.11395018712107   -2.19168272614170    1.07957662222562
H          -1.70050880155951   -0.78069276518643    0.56988227234201
O           0.20688758036755    0.54645181840581   -2.56519229033561
H           0.18816013803986   -0.87710548695142   -1.99326069629798
H          -0.49265600304169    1.00790420399119   -2.05617159780709
H           1.04048649719980    0.95570822257071   -2.25784497553012
N           1.49133959109549   -0.84094071818123    1.07919988167293
H           2.44108938192354   -0.74780245017267    1.41620594947638
H           1.07405791733784    0.09060232683041    1.08588760067218
H           1.54235467904138   -1.13678379179177    0.11023332018924
