    26
        -50.45023502  Gyration_radius:  2.51142953557 Dipole_moment: 0.807
 S           1.10825377919149   -1.68510090730369    0.33978026114800
O           1.56753616761587   -1.49790603206961   -1.01874524830065
O           1.42649224502404   -0.59402173047667    1.23397531067321
O          -0.31853590066356   -2.01884240471982    0.38187376031802
O           1.87165256360358   -2.95664340226081    0.89078988283875
H           1.85507181345094   -3.50683122720709    0.11575270597903
O          -1.03099014122703    1.35706144551915   -1.68257843882018
H          -1.35680867522853    1.68629191050737   -2.52175239719086
O           2.51588784460605    1.70611635014895    0.44881234247676
H           3.46381532212201    1.64407758690627    0.57456519425924
H           2.14030698712902    0.87692073141129    0.81253778284032
O          -3.04827287676056   -0.24963886068633    1.22140924609414
H          -2.90429777168264   -1.02729568457815    1.76549369924519
H          -2.25805791899614    0.36842121988739    1.40672949926374
O           1.47909340042153    0.98187091324165   -1.94062570675994
H           1.57240264225612    0.02744001952381   -1.73618463354062
H          -0.02738911626585    1.23681217701931   -1.80198805734113
H           1.90476906621988    1.43422336592456   -1.18490656626612
O          -2.03129568442837   -0.86662977858281   -0.98136561505232
H          -1.62467262625235    0.02738929984571   -1.30544137248115
H          -1.25941013913437   -1.40358171712852   -0.51819988722562
H          -2.61077646628242   -0.61300885273487   -0.13906572828168
N          -0.86089208904097    1.14587827511746    1.42892712258983
H          -0.10106936707005    0.46479071442194    1.45501709654928
H          -0.70971168016531    1.79475463245076    2.19078136756682
H          -0.76310138845237    1.66745196582339    0.56440837942379
