    26
        -50.45942984  Gyration_radius:  2.42418323505 Dipole_moment: 1.901
 S           0.60029981600613   -1.15901750259266    1.36371459354868
O          -0.43303513205808   -0.16981143492616    1.57139153158232
O           0.07544823776638   -2.50541030309032    1.16328343352988
O           1.51715120807683   -0.78806319123088    0.29493541887198
O           1.44363982385819   -1.21369008310849    2.69566540817293
H           1.94827153261133   -2.00965990709093    2.56760458603541
O          -0.50558918456825    1.04997061165303   -2.18312321875438
H          -0.63640479612754    1.71452658174615   -2.85969229382436
O          -1.25975707885928   -2.45531606674987   -0.95527322374072
H          -0.47343293715805   -2.13591759829486   -1.58930941812201
H          -0.77558467229797   -2.62559063602947   -0.06101136453171
O           0.66340176163723   -1.39620154171526   -2.14652657080901
H           0.29395441339619   -0.52503968179428   -2.39543545469659
H           1.17458266404225   -1.22510521434601   -1.32564148572585
O           1.31831028398713    1.79068080336549   -0.52803607276033
H           0.20508399253796    1.41063298619427   -1.56157522926682
H           0.90826556374702    2.25480860614252    0.23796272629849
H           1.55231353808689    0.90694881260553   -0.19194520622935
O          -2.15922214298218   -0.18100021826760   -0.43427772055956
H          -1.80067024889734   -1.56269412382956   -0.77856571650002
H          -1.64835089147043   -0.07207793072904    0.39722118690098
H          -1.70224378875806    0.37298398767640   -1.10062239211878
N           0.05978524881399    2.66259331846294    1.71740897137165
H          -0.20264804161496    1.69019529915162    1.87277676465766
H          -0.78839345631261    3.21503913774389    1.72492208387407
H           0.62482428653992    2.95621529888347    2.50414866258997
