    26
        -50.45942977  Gyration_radius:  2.42427664179 Dipole_moment: 1.895
 S          -0.37250302426221    1.84414723978097   -0.14720190949502
O           0.12274015795870    2.37069301983511   -1.41450484484720
O          -1.38280810667516    0.82329668685940   -0.30993664484247
O           0.72483014017285    1.40812841542303    0.70505262380452
O          -1.07078032927882    3.05489906179101    0.58439671236124
H          -0.42849565877714    3.74558673089472    0.46173531900485
O           1.11854920260276   -2.20616830475059    0.08263191978263
H           1.33963634330960   -3.10087471562545    0.34168638090474
O           2.58836039389511   -0.01613909796187   -0.54238935476897
H           2.07002324629318    0.59072029010276    0.02996363097352
H           2.27403700849724   -0.91165283747738   -0.30382628523286
O           1.25318917366496    0.47303710166034   -2.59541617075234
H           0.80412735658315    1.33522842451020   -2.25167593631371
H           1.96489846120064    0.26243670731202   -1.83867684740558
O          -0.48388192072483   -1.15267625689816   -1.82395869562863
H           0.51529142573712   -0.26935083283373   -2.44112296291650
H           0.01826555195996   -1.69236883420927   -1.17891391836068
H          -0.98583728243964   -0.49933662114140   -1.28986364390935
O           0.24487165583028   -0.87063926801140    2.09966376182374
H           0.43587464519550    0.02010527182112    1.75515249329452
H          -0.73793971686838   -0.92423019365365    2.13827158830486
H           0.76694536784623   -1.74718378179021    0.91151106955496
N          -2.45868240651090   -0.72960502853223    1.86217209251153
H          -2.97560487842183   -0.19668525543619    2.55008536017704
H          -3.05108887814347   -1.49028048073410    1.55372566405203
H          -2.29401790863667   -0.12108744094605    1.06143859790641
