    26
        -50.45942973  Gyration_radius:  2.42422123449 Dipole_moment: 1.894
 S          -0.48147578995699    1.58141296666505   -0.90936665399556
O           0.06291872256913    1.58414126674698   -2.26297963010179
O          -1.40994015751340    0.49960765357424   -0.67039650099524
O           0.58184578613870    1.62993897763004    0.08430489637552
O          -1.30516781281648    2.91951248064261   -0.76875779344985
H          -0.70275135506370    3.55221143691776   -1.14469867664936
O           1.25125016318679   -1.87317701019936    1.02542323969957
H           1.51138006513380   -2.56127045179312    1.63813091370586
O           2.61455272576085   -0.01175301444362   -0.39756721384332
H           2.34394490775428   -0.75476306916610    0.17888093136187
H           2.02059900084390    0.72855547303618   -0.14549531211703
O           1.39115402200358   -0.52442564778372   -2.51376839447075
H           0.86487573803813    0.36034970324897   -2.57292143684744
H           2.06254468714840   -0.34390415060900   -1.71390845167344
O          -0.28438153881031   -1.83654609770926   -1.20002072886398
H           0.69438645101916   -1.19983698371823   -2.09188562455999
H           0.20722786229916   -2.01881601457308   -0.37260370107107
H          -0.86283373861932   -1.06838599888933   -1.00162583560690
O           0.16053528113669    0.08990369211148    2.27919832890864
H          -0.81715414415369   -0.02776911933731    2.30307542655913
H           0.81614587085559   -1.14751093805432    1.57805217211621
H           0.31561988700880    0.77430971731411    1.60373803565479
N          -2.52455881314263   -0.11123087551231    1.91208951863349
H          -2.34607329405918    0.12630667930022    0.93724769001571
H          -3.11809707242898    0.61151131178459    2.29904939076272
H          -3.04654745430873   -0.97837198717721    1.92680539043577
