    26
        -50.45469716  Gyration_radius:  2.50992699625 Dipole_moment: 5.575
 S           1.79553765553299   -0.87441029763408   -0.95099855831779
O           1.13879998801930   -1.10579355437667    0.32444208198792
O           1.14991438014208    0.36643848936494   -1.60806817402818
O           3.19921441730250   -0.66863117745040   -0.89142356150623
O           1.44601340860423   -2.02896231035560   -1.89412145642586
H           0.40027201477513   -2.11405439265467   -1.91810840933090
O          -0.01280447058758    2.52784897632873    1.02789357515774
H           0.18591745627842    3.46523772754820    1.03204463853397
O          -1.56096798571521    0.91654960106028    2.69165640891750
H          -2.32148710423910    1.43035392566886    2.96592950949514
H          -0.97278197211413    1.51969740815874    2.20580442261476
O          -1.46134338126635   -1.12740149556066    0.88125880618834
H          -1.60262524043304   -0.59030035863013    1.68213565450880
H          -0.49529549337400   -1.26779746754830    0.84194926955613
O          -1.19576387968546    0.88100042414489   -0.81771036653531
H          -0.93768420692236    1.61601495381795   -0.23313933281340
H           0.17518858539628    0.54611770729274   -1.32831489954940
H          -1.42073398611128    0.13319184338440   -0.20504934416721
O           2.27671847767109    1.17388880972641    1.11549768059813
H           0.85950626907278    2.06427606595548    1.05412665175533
H           1.89771683321585    0.27934204562859    1.13652387138214
H           2.96857186890529    1.11715314294624    0.44910469214523
N          -1.11489080154446   -2.08119311800316   -1.90200567902714
H          -1.43466275783945   -2.08147263629212   -0.93784964524014
H          -1.52424185656598   -2.87105571403617   -2.38332192927173
H          -1.43808822863065   -1.22603858858321   -2.33825591668905
