    26
        -50.45942988  Gyration_radius:  2.42424956997 Dipole_moment: 1.899
 S          -1.37379998908929    1.26425845743149   -0.27931235953856
O          -0.01032025393223    1.47925034747344   -0.70830968990896
O          -2.25598382836121    0.83650278684557   -1.35972093147792
O          -1.46149072526951    0.36065622886538    0.85929709838993
O          -1.91973014370556    2.66427368583539    0.20056456088134
H          -2.85377500829087    2.49377630970790    0.25722943497448
O           1.27610914444471   -2.07470939441960    0.43836646437039
H           1.94942277803333   -2.67226451458942    0.76404776183456
O          -1.42423722942028   -1.39587214574848   -2.13292936679904
H          -1.86351717997396   -0.48157873949393   -1.94743259885881
H          -1.51356991623313   -1.89165056003975   -1.20075038378859
O          -1.42267326212511   -2.21916108473118    0.22524684711531
H          -0.47234021892270   -2.39463304573687    0.37883877172058
H          -1.57815711679525   -1.33086703968105    0.61405857054955
O           0.96104676126867   -0.69410973131033   -1.86477519545384
H           1.24207451571008   -1.22857280483072   -1.09339919031684
H          -0.39169956373451   -1.16912137414737   -2.18393979304926
H           0.75204554432209    0.19685819357632   -1.50897297148133
O           0.90153579531820   -0.14381018401765    2.09546915115926
H           0.00467328951112    0.10105723373451    1.80500190722910
H           1.19348675602270   -1.33619754725126    1.12333776425214
H           1.46800749791394    0.62375903190628    1.85001364313506
N           2.16926531542917    2.03825663792193    1.08710665201883
H           3.07421671105412    2.02252986095087    0.63388065737448
H           2.09191874665176    2.91356768839657    1.58931129729850
H           1.45749158009817    2.03780170335844    0.35777192840670
