    26
        -50.45469729  Gyration_radius:  2.5101048509 Dipole_moment: 5.576
 S           2.16427029799617   -0.14108861669943    0.43640238048730
O           1.73037298553336    0.29436910183269   -0.98151417522278
O           0.97804672964864   -0.55338463072792    1.16728218753728
O           3.18127387044269   -1.12387457873489    0.31013165847655
O           2.70934644505190    1.13866147050705    1.07655394366694
H           1.92367708142384    1.83307113088100    1.11723553331646
O          -1.21339226088440   -1.58939051656766   -1.85707711943865
H          -1.28967233328457   -2.03965165275903   -2.69945859632676
O          -1.37381443994327    0.67346975401075    1.35727636135338
H          -0.55956800604633    0.15078668618203    1.49220521988115
H          -2.07257931683466    0.01142934659051    1.20464467329390
O          -2.98429920602233   -1.24466747222346    0.26557682579174
H          -3.86155077771464   -1.13982902667014   -0.10480293646677
H          -2.39254428090493   -1.47580765174566   -0.47080418398798
O          -0.68606426711160    1.01297972742918   -1.17308388632658
H           0.76241192390988    0.63888679679316   -1.05081962724868
H          -0.99630968219178    0.18729417906177   -1.58610153230176
H          -1.02949277487645    0.97880060973228   -0.24247457007719
O           0.86373891157303   -2.60261341189268   -0.53715705951518
H          -0.43085814573751   -1.98849861973459   -1.40454204681229
H           1.80019877921177   -2.54249067085409   -0.75013133942883
H           0.77307086865088   -2.07377116415125    0.27304834439177
N           0.71786342704549    2.74967610876402    1.05592846573310
H           0.86411831028400    3.61578442852224    1.55743608362075
H          -0.08262493454111    2.26881348859911    1.45566280700676
H           0.50438080533268    2.96104516385421    0.08858261859859
