    26
        -50.46220846  Gyration_radius:  2.42279852241 Dipole_moment: 2.972
 S          -0.17016459515357    1.23925478258522    0.10190191143995
O          -0.35557259718673    0.90048195137384   -1.30232648269316
O          -0.89356123027823    0.28434199216424    0.95431781987170
O           1.23931636316086    1.28691482506027    0.46671288501160
O          -0.75880349520634    2.64310932598963    0.36419708713351
H          -1.67632426373366    2.57784384268405   -0.02975580364847
O           2.64105894246800   -0.13050938595407    2.17634984422275
H           2.20518519880205    0.57936190159161    1.65459097465134
O          -1.37057157860290   -1.53382216806755   -1.11830885385257
H          -0.99932741947190   -0.64963670528307   -1.32918897885331
H          -1.82150002846325   -1.40453622701189   -0.27837872202859
O           0.91831756031724   -2.55429304097062   -0.29146893322011
H           1.52723145848492   -1.89193456389456   -0.70462812677584
H           0.03827031726056   -2.38189929805879   -0.71296535028185
O           2.20087669125990   -0.45876024282110   -1.27627551584323
H           1.76426377251200   -0.23844094986640   -2.10294866978290
H           1.93310253155702    0.25699120565353   -0.66293789952940
H           3.37797384620749   -0.43589530566458    1.64116755770942
O           0.52059300672070   -1.54235948171048    1.93145251244395
H           1.39189722626972   -1.07159960725412    2.17253212935773
H          -0.11551728741656   -0.78290624332241    1.62768980490779
H           0.71913515430063   -2.09142754921790    0.99743230503352
N          -2.94212222836162    1.99819028912656   -0.90291243400855
H          -2.31330080191895    1.46947760582672   -1.50046528426785
H          -3.53200574785451    2.58390964626912   -1.47928881366992
H          -3.52845079569445    1.34814340080077   -0.39649497333120
