    26
        -50.45346027  Gyration_radius:  2.47909848015 Dipole_moment: 3.229
 S           1.55840987705022   -0.76456624539947    1.16321369378475
O           0.15039228916523   -1.11886691808197    1.33674436995689
O           1.78087123958678   -0.20013540129561   -0.16342288703651
O           2.09659892984576    0.01457699363066    2.24006273686575
O           2.34629591891265   -2.14684335466056    1.15489733498314
H           2.52835861778199   -2.29532585819102    2.07701195317800
O          -0.91135659764093    1.05294418846440   -2.08663896603306
H          -0.38170841474698    1.79591557552424   -2.37802089174612
O          -1.14838883050900   -2.39259743571421   -0.54216571226654
H          -1.97950295266987   -1.86312882832499   -0.59342517744366
H          -0.70778100040842   -2.09679858204055    0.28874353641427
O          -3.03280013013077   -0.49656549639540   -0.70239429532033
H          -2.91679219079018   -0.05301132779300   -1.54767220928992
H          -2.67510905667715    0.10796952937605   -0.03738386771185
O          -1.04744177993509    1.09704437038404    0.50827964651334
H          -0.67960105686505    0.26608555718919    0.87375156949636
H          -0.39612370147502    1.77991077884954    0.81139954601205
H          -0.97190056742102    1.12577350939896   -1.08578877193864
O           0.40791514316390   -1.14087178049392   -2.00753977853105
H           1.08159148773943   -0.81541633151926   -1.27685271812219
H          -0.27551338681719   -1.79069272917528   -1.45848878336051
H          -0.13259018143786   -0.29816233281361   -2.19975775210254
N           1.06687708609069    2.51012124979239    1.30841522016952
H           1.48811003269956    1.67729471614959    1.72266438389326
H           1.05595751403444    3.23124275100488    2.01976249315774
H           1.69523172147822    2.81410342216246    0.57460532649680
