    26
        -50.45346045  Gyration_radius:  2.47950168418 Dipole_moment: 3.231
 S           1.62519540058844    0.41760375999257    1.24546704127830
O           0.63338254605092    1.42816708913843    0.89469165926841
O           1.09180981384859   -0.92327432387071    1.00935779365648
O           2.92296457943472    0.63344465237231    0.67487795478153
O           1.78923104417572    0.53821123435810    2.82328398841983
H           2.66510753232306    0.19819888106167    2.97390412882157
O          -2.10617223919302    0.64604960572853   -1.19939863270945
H          -2.01831023174802    1.48510833228415   -1.65300779018243
O          -1.32672303441066   -1.55779379386096    1.77724865119827
H          -0.35460364380721   -1.48477879342017    1.63057856610296
H          -1.67521173854437   -2.00096554527817    0.96736856251628
O          -2.06087921481140   -2.28194556140607   -0.69417987429949
H          -1.23024662267460   -2.07966005202889   -1.14692373299144
H          -2.69383448689803   -1.62866904913797   -1.00598446559296
O           0.12269400020588   -0.66805817679862   -1.44569722641984
H           0.77880370766602   -0.03622748534530   -1.83657281584970
H           0.49787150187281   -0.85406734115716   -0.56029156118759
H          -1.24269887038792    0.15359294129310   -1.34890838601738
O          -1.74169739274316    0.84262799548176    1.32789929310355
H          -0.74848523546695    1.16063888320171    1.25100894202555
H          -2.03997671911330    0.81551623773549    0.35331412358398
H          -1.65632517468927   -0.20461895959012    1.62249633651799
N           1.98085483887211    1.17110747844758   -1.96643789347290
H           1.66463460523902    2.13322388970322   -1.96212036547090
H           2.70254523389038    1.08962523718707   -2.67264729263822
H           2.42006981033661    1.00694288392366   -1.05932702440689
