    26
        -50.45346019  Gyration_radius:  2.47898502458 Dipole_moment: 3.231
 S           1.31301398567195   -1.56814766800971   -0.43087675875572
O           1.71965902926992   -0.17162963361084   -0.27981081547877
O           0.01346896057935   -1.78986045377441    0.19362997953405
O           1.42028521161069   -2.06043408927974   -1.77349335524221
O           2.33744951421405   -2.40667480242255    0.45149031033084
H           3.05058396873111   -2.57951632196439   -0.15435089717393
O          -2.14560154301742    0.92138716993388    0.91317430790756
H          -2.90738842007431    0.41591993382296    0.62743972298584
O           1.47033661617727    1.05426159739844    2.01673192493301
H           1.05278011098578    1.90324624152560    1.73632365100542
H           1.78490740387259    0.63614589386956    1.18110614529497
O          -0.02937716384288    3.00373022274240    0.95762973010534
H          -0.05522816914351    2.67710554233369    0.04749073196788
H          -0.92094328442987    2.89239197290125    1.30027676199955
O          -0.47317486820595    1.09387642908559   -1.06847336017088
H          -0.80292814038898    0.47071898902607   -1.76518172529933
H          -1.54237873969598    0.99830375735799    0.11263468552958
H           0.38673763989986    0.70129238725900   -0.81208937894055
O          -0.46384712763201   -0.47596446205721    2.24717420299051
H           0.39911723402419    0.19126623037671    2.28274260263865
H          -1.21546335741063    0.09194543992533    1.85765200043940
H          -0.24149202628818   -1.12772400847087    1.46005187443670
N          -1.06031376725941   -0.96084037644299   -2.66244276606651
H          -1.14596793801242   -0.92016856069799   -3.67099510049526
H          -1.77872057087543   -1.58691195231982   -2.31949408404967
H          -0.16551455872715   -1.40371947850955   -2.44834041044166
