    26
        -50.46272433  Gyration_radius:  2.48146338543 Dipole_moment: 6.103
 S           0.59438195316978    2.25370770192728    0.19230179517880
O          -0.57900609629231    1.69888797498867   -0.51077777098972
O           0.81384088949211    1.54501462047101    1.42896185536663
O           1.74435312066297    2.39114298525772   -0.66411783604745
O           0.17289364450837    3.74219605689772    0.57737698525934
H           0.64912496320224    4.23835021597026   -0.08018103106454
O           1.11206818847326   -2.04748525394867    0.40892917817850
H           1.81047454864417   -2.70348990463800    0.40883191343805
O          -1.28763668191910   -2.21700544516094   -0.76769626449305
H          -1.47766260196837   -3.10960035364256   -1.05784072990800
H          -0.39253187678053   -2.23281846833468   -0.35413400643736
O          -0.39431949954501   -0.11883182105942   -2.52421130149318
H          -0.84745533273076   -0.85051413476517   -2.08492549711136
H          -0.53220918519091    0.65982267586382   -1.95677651935665
O           1.95116705947859   -0.21136793137312   -1.18360317394250
H           2.03091278943938    0.73114213700792   -0.94428598112203
H           1.46888358614517   -1.28083151583518   -0.14161733500928
H           1.26122923449286   -0.22981442962683   -1.87921270877744
O           0.03354135422027   -0.70085112105483    2.53750513686072
H           0.45316254294375    0.16915717146381    2.37199204853227
H          -1.18016218946372   -0.36060219536304    1.65754808665133
H           0.51855734231994   -1.31052497675713    1.95218014939766
N          -1.85568440511844   -0.08589531564709    0.85940301480416
H          -1.36728915189367    0.70576619588518    0.32052725417810
H          -2.75722456639630    0.21919736363253    1.20724657441422
H          -1.94340961989415   -0.89475224216040    0.22657616349316
