    26
        -50.45346034  Gyration_radius:  2.47925069369 Dipole_moment: 3.230
 S          -1.11715693213932    1.70488763430465   -0.45945543126826
O          -0.74489100864103    1.36326981810530    0.90899799463754
O          -0.26041854778514    0.99973524556697   -1.41190339245697
O          -2.51784810845978    1.58661485934345   -0.74304506073629
O          -0.74408262940270    3.24405646007370   -0.61103451295640
H          -1.32601117492702    3.53849670738331   -1.30389738746670
O           1.17049802193928   -1.52686515764741    1.61006126520147
H           0.63634491373660   -1.71465800289750    2.38263078023249
O           2.35449499547700   -1.78305957205614   -1.10199796885475
H           2.55783043263926   -2.07972666131516   -0.21022030826809
H           1.40461274500119   -1.92629075997585   -1.21600973583545
O           2.32858841784680    0.89438285571592   -1.05729516044131
H           2.50443621510634   -0.06426105814569   -1.21159480631420
H           1.40959009594352    1.04125815609518   -1.38269521348704
O           1.67141863436616    0.96909271845040    1.32986334229044
H           0.67126488286365    1.24893838313864    1.20720042709828
H           1.59693261564206   -0.02396302946432    1.54822217472157
H           2.07568489424299    1.00197372738612    0.31672076757396
O          -0.37724114319493   -1.47884662081499   -0.47711232042328
H           0.54578477048912   -1.55411998949566    0.82287761520457
H          -1.30791578922310   -1.50173760806131   -0.13695945051573
H          -0.32348283753387   -0.60170722396161   -0.90965157889702
N          -2.82393377527893   -0.98550914791561    0.45996746533547
H          -3.66968343830101   -1.46424575228960    0.17414757361058
H          -2.82684947625804   -0.06653762591677    0.01493082119439
H          -2.88796678442486   -0.82117833565291    1.45725211092716
