    26
        -50.46154475  Gyration_radius:  2.43330277607 Dipole_moment: 1.377
 S           2.05847624315598    0.41179288462247   -0.41711511464564
O           1.26967513286603   -0.59875871127421   -1.09733033078445
O           1.68789283608283    1.76649874821602   -0.76853451132454
O           2.06217859569681    0.20670387676725    1.02908568874873
O           3.54537034741268    0.20733574485808   -0.90956854943505
H           3.97665396591758    1.01569638443885   -0.65187873153535
O          -1.48065822007794    0.85210231677617    1.09973657458278
H          -0.90373263352543    1.60553353250283    1.37018122312256
O           0.52988330401533    2.53201539149464    1.50234184373303
H           1.11774923273777    2.09514042461495    2.12438213994194
H           0.95236092821667    2.40093204865627    0.62940431145441
O          -0.24509871043859   -2.56976010519690   -0.10910596936725
H           0.40335503334904   -2.07828705593212   -0.64784315330543
H          -1.14228519246547   -2.30527466444749   -0.46624001104412
O           0.00713737417046   -1.03828150507056    1.82385181090738
H          -0.12220191505579   -1.80401601863085    1.06776245072367
H           0.89931696171136   -0.59847209349489    1.59646566669446
H          -0.70269829356224   -0.29308059928103    1.59590778688223
O          -0.87475559345530    0.87186184684522   -1.52429296984219
H          -0.50519065824910    1.74704782915800   -1.67302580885804
H          -0.09075537633956    0.28427237136905   -1.48851029766071
H          -1.41850451353037    0.84284728632552    0.11889305876851
N          -2.54803794319398   -1.54200500423115   -0.96621391216484
H          -2.22124461160974   -0.72428747874475   -1.47111421639319
H          -3.10412093283403   -1.21543711691492   -0.18530382970727
H          -3.15076534091498   -2.07212033345884   -1.58193515949314
