    26
        -50.45346051  Gyration_radius:  2.4796343359 Dipole_moment: 3.236
 S           1.53595002255553   -1.38812898496891   -0.28843348185579
O           1.24451593565570   -0.73527436281180    0.98719041305427
O           0.37917799943521   -1.31313494992766   -1.17406217360409
O           2.77077322575316   -0.96853893408042   -0.88489975497674
O           1.69021944979794   -2.93470737784922    0.05099245059262
H           2.61402519027500   -3.01518858808177    0.26436889137152
O          -2.19483734508191    1.04937527493128   -0.60979463329978
H          -2.26067805455618    1.22810336690634   -1.54855254042419
O          -1.63126510860863    1.44223404487263    2.27991648079981
H          -0.85191090936604    1.77483104702719    1.81341934339557
H          -2.37037210472736    1.57230002726505    1.67875448808620
O          -1.01931059242347   -1.16436656424349    2.22479176424022
H          -1.28998389354694   -0.24365557101590    2.45441950876901
H          -0.07627263074324   -1.09170194624499    1.94674542691770
O          -1.85358335929254   -1.43547974185783   -0.09175620185093
H          -2.14845989093770   -0.48453877069009   -0.31097289442933
H          -0.93218304215627   -1.50505064940956   -0.58150042866229
H          -1.58315861640661   -1.40656448335015    0.96517502746566
O           0.22932894089688    1.57293054219834    0.16675596461983
H          -1.25883339076289    1.29872582299209   -0.34084399212182
H           0.63753106045327    0.76763948257210    0.54652229551572
H           0.75990704552100    1.72362920728974   -0.65680334704569
N           1.72607462135170    1.42705209094286   -2.03441410455821
H           2.44432721946710    2.09057555249035   -2.29897815032517
H           1.24330862589395    1.14606449176078   -2.87918230239199
H           2.19570961157564    0.59286996336537   -1.67885805918845
