    26
        -50.46154406  Gyration_radius:  2.43322108765 Dipole_moment: 1.333
 S          -0.33997103240517   -1.90779241897263    0.90862199565603
O          -1.28657429052291   -1.23205514464221    0.04068120320230
O           0.82159194004172   -2.41649445894047    0.21025199373911
O           0.03320817021157   -1.07517070348073    2.04941032420068
O          -1.10451209349716   -3.16080565863273    1.49214468866974
H          -0.40838748145707   -3.68887178312449    1.86944556049586
O           1.56742457077537    1.27462502061600   -0.21078154690320
H           2.18571185298769    0.65725363364795    0.24765643526831
O           2.67754435186548   -0.73625858637937    1.11234505070945
H           2.11408964377632   -1.43801734236360    0.72781119491084
H           2.37559481553614   -0.65306006482976    2.02077586346340
O          -2.24893681302879    1.26123173406693    0.13659329843952
H          -1.91513416684611    1.61833460667331   -0.73738497979994
H          -2.19248565687887    0.29009966289447    0.05824346973859
O          -0.21870629898935    1.39375143221810    1.55217436536229
H          -1.15291293317825    1.43814350981959    1.00306276520509
H          -0.15285521594784    0.42739847768872    1.87267403515458
H           0.53997935660409    1.46682396406700    0.82428531340437
O           0.41672551505150   -0.53123671408783   -1.84424613188777
H          -0.29657971933903   -0.82766893008965   -1.24054170799239
H           1.16593967649520    0.72743594989908   -0.92169225069366
H           1.03648349494787   -1.26647994117932   -1.85327793447937
N          -1.06219139709667    2.05374468585981   -2.11186113563901
H          -1.60917367117424    2.41413548827594   -2.88282068503335
H          -0.61970447668734    1.19162302752318   -2.41406594480789
H          -0.32616814120392    2.71931055350462   -1.90950524041952
