    26
        -50.46154459  Gyration_radius:  2.43317970568 Dipole_moment: 1.355
 S           0.26677349773893   -1.50488454895482    1.49845459038591
O          -0.46248349526747   -1.70111136614354    0.25916101634588
O           1.69853577581679   -1.39544939155833    1.31421565662910
O          -0.26986837108198   -0.38411525814142    2.26628980707524
O           0.01837998486846   -2.80596847639049    2.35909326196925
H           0.68150008966394   -2.75094231884010    3.03957791697938
O           0.73043442347029    1.85882988815216   -0.36975884834534
H           1.33108245776193    1.82427175072226    0.41227979087886
O           2.03593527638539    1.19177470919027    1.83888969148925
H           2.06612425124001    0.23076379474594    1.65640370846977
H           1.40365313519315    1.28279971565286    2.55671222385120
O          -2.42801619503452   -0.25924490673761   -0.84052228756487
H          -1.89929395457564   -1.01201066474871   -0.51452366800215
H          -1.98910229118633    0.02377233865534   -1.69496928137350
O          -1.42992776663596    1.31544753023838    0.79254719324866
H          -1.97828297476879    0.69621704856808    0.09083303237266
H          -1.05106490297043    0.65885672964861    1.47543066037532
H          -0.57843345938195    1.64869610506929    0.26876183587494
O           1.29648158391901   -0.58363938360617   -1.35380787376895
H           0.63338741243714   -1.09434273585877   -0.84325253756489
H           0.94409517022437    1.04151438801394   -0.87204637917950
H           2.13533040673796   -0.81251351171647   -0.94308922048005
N          -0.97981549684086    0.55741935428471   -2.92078085822593
H          -0.78452688315051    1.54865571440247   -2.84995935517960
H          -1.28237466079009    0.36301588321004   -3.86640086766530
H          -0.10852301378208    0.06218761227598   -2.75953920845758
