    26
        -50.46272423  Gyration_radius:  2.48168290665 Dipole_moment: 6.104
 S          -0.23831322030908    2.00582248571266   -1.18017718371703
O          -0.46689243205906    0.63932859764933   -1.68976324388858
O          -0.74672590870117    2.12672308922041    0.16391824786224
O           1.11490240498186    2.45656034121690   -1.38176605900799
O          -1.13901964483007    2.94178459483202   -2.10396585329432
H          -0.47938817680240    3.30881180732602   -2.68310067811828
O           0.99259310643949   -0.60062562039780    2.06110172292191
H           1.63908670348463   -0.63972949356342    2.76721348918315
O           0.12310959763334   -2.61960459693552    0.53220713784059
H           0.48259340765916   -1.93128409576506    1.14016341005951
H           0.39337461827167   -3.46958460948642    0.88083061429931
O           1.43442860059510   -1.30434484437607   -1.66636621230136
H           0.99268736798315   -1.91547205653962   -1.06214086831915
H           0.77570108086540   -0.62198769773969   -1.88486894162982
O           2.22062812923487    0.56172419012835    0.12458745079676
H           2.20133090063537   -0.13668699343467   -0.56245201393674
H           1.89518667456421    1.36083770504131   -0.33115475120078
H           1.43405228958244   -0.06684322021533    1.32709894224400
O          -1.50686407674262    0.52144467760271    2.09464034536134
H          -1.85645227832914   -0.31398071057428    0.85241901189647
H          -0.62988592428878    0.15971286458865    2.31740592891284
H          -1.30540132453644    1.31634794086129    1.55802829010609
N          -1.86491279400893   -0.83943170051880   -0.09234123305917
H          -2.80552621889293   -1.03251412530129   -0.41611456216534
H          -1.31438095267765   -1.70339728218958    0.02117524272022
H          -1.34591194975244   -0.20361123714317   -0.78657825356603
