    26
        -50.46272417  Gyration_radius:  2.4813115293 Dipole_moment: 6.096
 S           0.62343112064318    2.05167846819560   -0.93271729976139
O          -0.48866375508894    1.18044380220107   -1.36035423194395
O           0.70806832845463    2.07940327305891    0.50678553565889
O           1.85322384654900    1.76906720455755   -1.62742043805865
O           0.19873506246988    3.51490525052625   -1.40207518690830
H           0.75432149209770    3.62558568361672   -2.16668437130841
O           1.02119813218111   -1.51653987126095    1.50146866857265
H           1.70218097370618   -2.05853816827777    1.90221339962279
O          -1.25671145292300   -2.33636423663404    0.35649539585637
H          -0.40636553528572   -2.11140537607918    0.80231641015189
H          -1.43741890864446   -3.25733468194148    0.54672794971327
O          -0.15120700431967   -1.40466600488109   -2.13261143330429
H          -0.66084788818843   -1.82220239250865   -1.42578436075453
H          -0.32624070698771   -0.45002753018439   -2.05994375115088
O           2.05005188693895   -0.72531891039993   -0.71842306790286
H           1.43065475726488   -1.11815298692049   -1.36827539303679
H           2.12754147710279    0.20878445131204   -0.98915019742270
H           1.44603314488667   -1.12740281261970    0.67316545302405
O          -0.22822609664180    0.69509472231814    2.52828893824888
H           0.29705141047504   -0.11339031030700    2.38686677572374
H           0.22538457818746    1.36992908306136    1.98112897898418
H          -1.34278960097288    0.50089670250844    1.48811252238865
N          -1.93178333569818    0.30859608435318    0.60196203766593
H          -2.85562485414787    0.72119539486535    0.65789037135624
H          -1.97605533355046   -0.71228778055198    0.46697898696033
H          -1.37594174850903    0.72805093199219   -0.21696167237529
