    26
        -50.46272427  Gyration_radius:  2.48173650458 Dipole_moment: 6.096
 S          -2.05824627649656   -0.71737179856899    0.84924398099428
O          -2.13994521806645   -0.45882626992498   -0.56716029412674
O          -0.72077424823951   -1.23727844980002    1.19519896757375
O          -2.47705800963841    0.36041254881870    1.70831404303908
O          -3.05698101543433   -1.91985385881144    1.16148868166573
H          -3.43548280268184   -1.62751295568246    1.98406851028818
O           0.71270122514564    1.87969343844218   -1.24554122985359
H           0.79856546474958    2.79400461560068   -1.51895139915835
O           1.27619462179857    0.31504813666507    2.19258902085225
H           1.89842686495080    0.21792140553470    1.45972671262897
H           0.56632635537739   -0.33000745732813    2.02733993060862
O           2.64217588938119    0.25826128857592   -0.34008013013907
H           1.98993402837880    0.90954650525976   -0.69063618715192
H           3.51309275644718    0.63057768413989   -0.48135726718662
O          -0.47917377595188   -0.19522250169137   -2.58025544671123
H          -0.08330690318978    0.65441830820167   -2.31383914995844
H           0.29534479638687   -1.16957487891051   -1.67916685593841
H          -1.28882670030738   -0.26095873844080   -2.03179357081308
O          -0.49081912867211    1.99387724092624    1.02348814987056
H           0.16293400600618    1.90666363347373   -0.39969386323992
H          -1.31710436373096    1.51802252553282    1.23091438988746
H           0.17800104029484    1.59269268848596    1.61669862190802
N           0.78165563989561   -1.68552471853570   -0.86272774052493
H           0.93411646147664   -2.66674754905333   -1.06471133463700
H           0.13322015374823   -1.56731698502249   -0.01355133526021
H           1.66502915837127   -1.19494383788766   -0.65960520461670
