    26
        -50.46272386  Gyration_radius:  2.4811751598 Dipole_moment: 6.095
 S          -1.37682961233021    1.88958046675635   -0.00538191797731
O          -0.05674593496044    2.19649081279064   -0.49862973242684
O          -1.75256153861651    0.51230790443868   -0.38007012544128
O          -1.60623282037971    2.17208880987576    1.38828603961430
O          -2.39861015525248    2.82114562394169   -0.79945580537017
H          -2.98575916764441    3.08172106144910   -0.09747630629004
O           2.12793803630532   -0.49822758260326    0.90605282156168
H           2.84345352144725   -0.53740212144505    1.54215115454374
O          -1.50409002522090   -1.61440938512639    1.29579817607989
H          -1.80210053063617   -0.89078354659155    0.71719923170834
H          -0.85093456406443   -2.11041363986582    0.78487610062897
O           0.78888449910980   -2.55252626502976   -0.16977300794229
H           1.33248597960483   -1.85040915187032    0.25930362171457
H           1.22496432345604   -3.38776250528498    0.00123227175880
O           2.00535217473929    0.88782245450430   -1.45466002246206
H           1.39653561981724    1.59701500643034   -1.15961371088650
H           2.28076890190833    0.45554456135665   -0.62598062009872
H           0.84538769005711   -0.02417993265578   -1.88519875771043
O           0.10605097498654    0.33012883195570    2.26229240702379
H           1.35254664915010   -0.08881971282429    1.40506533036876
H          -0.43357801202131    1.10948299233482    2.03175250708983
H          -0.50818540770361   -0.42821814337736    2.17355612825761
N          -0.04313525949687   -0.63727928695200   -1.94493433118048
H           0.16482187894444   -1.54052307470045   -1.49402880500933
H          -0.36338810055501   -0.75773630130905   -2.89875192925069
H          -0.78703913064430   -0.13463785619798   -1.35361071830397
