    26
        -50.47000567  Gyration_radius:  2.46326028098 Dipole_moment: 2.730
 S           0.79546425044326    2.04208807272900   -0.32567883377016
O           0.60727276704800    1.72870141511896    1.06997178040526
O           2.12536979309005    1.79498447589234   -0.82660295777304
O          -0.25539236874216    1.42069829973439   -1.14690397571937
O           0.55833322856854    3.60793168777228   -0.50304810065447
H           1.45409701396428    3.92576451544927   -0.54025450916172
O           0.47925379103439   -1.95534783738398    1.52568751655748
H           1.01127700531214   -2.59535902297336    1.99995315723110
O          -1.30574897994770   -2.21675219993785   -0.55205179591289
H          -0.69936356307444   -2.33138817653248    0.20304854192545
H          -0.74655915171804   -1.93376240840183   -1.29461241684869
O           0.32719920589688   -0.85519756827816   -2.32360250632197
H           0.51828295368735   -0.71637330478349   -3.25189121812647
H           0.11985622145685    0.03348476776698   -1.94680886438224
O           2.08264671861414   -0.78642124796566   -0.18570435755730
H           1.66540922100464   -1.04147365771721   -1.02320664511790
H           2.23004560134301    0.17379932492230   -0.27046688914334
H           1.11343440269117   -1.44343178995937    0.95592000765351
O          -0.92157218636799    0.16689305935501    2.55884062586188
H          -0.43645826072787   -0.66705879998188    2.42212632735462
H          -0.30541745585512    0.85460927388670    2.23509711165945
H          -1.78590936351434    0.19460818582029    1.26030825214935
N          -2.11960192920067    0.16771770850256    0.23996260026463
H          -1.97820697710957   -0.82486643956241   -0.10991418963813
H          -1.45591669959982    0.77608535624903   -0.30787032206571
H          -3.07779522830159    0.48006629025582    0.13770165108649
