    26
        -50.47126130  Gyration_radius:  2.42918439257 Dipole_moment: 4.305
 S           0.18718434549981    1.88397792601202   -0.25880492981975
O           0.07522046077622    1.02878750302640   -1.43576332769721
O          -1.09870932036517    2.47079482499655    0.08880559412632
O           0.82477793321577    1.20985881330247    0.84956554361433
O           1.12660264245353    3.08762987485648   -0.66154382731400
H           0.55221031145825    3.61339828052752   -1.20797273644136
O           0.25783006019519   -2.39388435481277    0.66394188004819
H           0.52202805617487   -3.30713265577307    0.77803249939464
O          -1.47633801462208   -1.10511660840346   -1.01772302522118
H          -0.90999588696166   -0.36709805865263   -1.32387891726227
H          -0.88541055098223   -1.69588398774152   -0.51335966943574
O           2.13854749098764   -0.31182448206747   -2.44437687196794
H           1.76193386330050   -0.89487680077150   -3.10566938825023
H           1.40909061833781    0.26938533002952   -2.14664433922890
O           2.33741704495828   -0.92419231163860    0.19852411922051
H           1.10062028173349   -1.87950615677099    0.47370993041898
H           2.47528527584787   -0.80733560570111   -0.76025214247690
H           1.95540884081646   -0.07911159444638    0.50020380896177
O          -0.48079732475465   -0.49256464047332    2.50362065341861
H           0.12635847838974    0.18586088412944    2.15558752587209
H          -1.76662964825542    0.01057076886049    1.72762152294740
H          -0.23155513752439   -1.30624111090505    2.02622238190626
N          -2.39424163464339    0.36608290588466    0.94000845095896
H          -2.23599413647837   -0.29477963279848    0.11716878522534
H          -2.00240561421213    1.30146282123427    0.64093292292262
H          -3.36843844533924    0.43173804808985    1.21204359607568
