    26
        -50.47126132  Gyration_radius:  2.42918437642 Dipole_moment: 4.307
 S          -0.29436958917309    1.86474448753778    0.29593233265540
O          -0.02279776151929    1.41104630824194   -1.06406180638713
O          -1.72387644513173    2.01842390101390    0.52321807071187
O           0.35558233343745    1.03930517860696    1.28875367062542
O           0.33021698216177    3.30929357505177    0.42436576210646
H          -0.29053478996129    3.83822047006135   -0.06538431138530
O           0.80552316817836   -2.36385559536257    0.03944208839266
H           1.28867843138519   -3.18650233660436   -0.04236371207025
O          -0.98432618515985   -1.03333835723934   -1.54936814635597
H          -0.32516929076356   -1.60598903260530   -1.11339934417524
H          -0.60301351739431   -0.13148548488692   -1.52778576677077
O           2.43508086276124    0.93397559366348   -1.96049593894282
H           1.54478892347685    1.22012369340031   -1.67056025158824
H           2.31555545612888    0.51472724499613   -2.81433184196273
O           2.45545764367683   -0.40336468869013    0.40826974753613
H           2.67692387467782    0.03049502295120   -0.43709091480046
H           1.82551647074580    0.20206291480814    0.84159419231389
H           1.49619259176546   -1.64411585327330    0.16576843498874
O          -0.64364295198460   -1.33293984382637    2.13244735126045
H          -1.90856437731806   -0.91047294177103    1.27822326162630
H          -0.12664067495138   -1.88414801253305    1.51514628439070
H          -0.20206023769415   -0.46438697954756    2.10667762355746
N          -2.50390638240210   -0.47640587878284    0.50504045373980
H          -2.07135683140041   -0.79979791011656   -0.41533516809102
H          -2.34300334131726    0.56759079052829    0.55082128325432
H          -3.48625436223945   -0.71320624563077    0.58447664538962
