    26
        -50.47000619  Gyration_radius:  2.46323633419 Dipole_moment: 2.719
 S           0.34749591713564    2.16513385499024   -0.31640371459453
O          -0.35076609709632    1.88300233232913    0.91424910596194
O           1.77889888370032    2.28526592553080   -0.18467708426613
O          -0.05847309509247    1.22701070840402   -1.37459741239515
O          -0.15294940604104    3.58532860416079   -0.83802215470059
H           0.55926662237419    4.14718353186412   -0.55187593578696
O           0.21530794209244   -1.65461378152086    1.89550803723354
H           0.62218584599794   -2.08989468198169    2.64555059171155
O           1.50112238186270   -0.84228499387539   -1.81070617625318
H           2.03889644906964   -0.70141990539105   -2.59072939585756
H           0.94559407545384   -0.03279833507675   -1.70666597968735
O          -0.36580390353113   -2.52353196673923   -0.64958524368711
H          -0.14161297597460   -2.42021614127609    0.29389767334269
H           0.37628870657799   -2.13025066298517   -1.13820533247833
O           2.07606509586786   -0.16381653060343    0.80941212562991
H           2.13954675680162   -0.57011357075828   -0.06891206322350
H           2.01283122608901    0.79274383805125    0.63064778124982
H           0.89293174683365   -1.01197466474478    1.55362885037570
O          -1.95538558602717    0.02455566956015    1.89690147679708
H          -1.27629264350842   -0.64052714135187    2.11154439433532
H          -1.44311443873824    0.84316924200676    1.73939887501500
H          -2.14596453702748   -0.26313546976504    0.37553049671069
N          -1.98409541902725   -0.43636153073325   -0.67188720823854
H          -1.31359840069155    0.30838909716791   -0.99815031783267
H          -2.84531861908685   -0.41794937315683   -1.20494005679540
H          -1.47305653800894   -1.36289406402710   -0.76091131257797
