    26
        -50.47126129  Gyration_radius:  2.42917481583 Dipole_moment: 4.307
 S           0.61620013829325    1.65148135822548    0.73749889711627
O           0.80661788398544    2.55281489052935   -0.38951063912689
O          -0.79071625242415    1.29977631400275    0.89899732449265
O           1.46984593569876    0.48608805763560    0.68654902097414
O           1.03054607261675    2.46389724859695    2.02657909540549
H           0.61849028942849    3.30710191281162    1.87098564773212
O          -0.35523221384750   -2.38939586432596   -0.63494186319708
H          -0.56425947302803   -3.32296590039304   -0.67527460939740
O          -1.65309713473309   -0.35938680774558    2.78995810520093
H          -1.35430477864194    0.33853688425538    2.17172942533103
H          -2.57335667147285   -0.52614646860429    2.57928592698548
O          -1.75150190945217   -0.09479218506204   -1.16671703894476
H          -1.39880931788612   -0.98859565174820   -0.99576593630105
H          -1.55067839472265    0.42461798823336   -0.36105664895311
O           0.43232989885091   -1.76294463496249    1.75020670888938
H           0.94114694560684   -0.96866014728286    1.50250766899823
H          -0.31010332059254   -1.42634510014800    2.28628428733880
H          -0.07157422031493   -2.20597392935841    0.31213423185793
O           1.82648549785116   -0.99578208379688   -1.55272961407481
H           1.97718032159082   -0.53149698333165   -0.70904369149759
H           1.14227610084913   -1.65924158806791   -1.34339067090004
H           1.00968298148466    0.16881258824240   -2.24894980930024
N           0.30323621602530    0.95602572155149   -2.39699733541355
H          -0.64122721228544    0.56459709924351   -2.09114080481319
H           0.29661859683230    1.30545809548605   -3.34843615004636
H           0.54420400028953    1.71251920600741   -1.69876150836392
