    26
        -50.47229300  Gyration_radius:  2.48063655849 Dipole_moment: 1.996
 S          -0.34660465826812    2.04307547987902   -0.94931045067349
O           0.45645374335951    1.66818642242314    0.21071643696752
O           0.29291319464597    1.66138441269576   -2.19357755870115
O          -1.71459946056271    1.58302498109424   -0.82507868085174
O          -0.40847476615350    3.62663181356320   -0.96474399488200
H           0.41635769269188    3.84145726013033   -1.38705206338568
O           1.35523932679695   -1.76513375330897    1.58251762712496
H           2.05746800795629   -2.27592924787792    1.98552091884696
O          -0.72670168232798   -2.28828375754149   -0.14090924304365
H           0.00942561035035   -2.29798554119578    0.49727179637462
H          -0.36487539929255   -1.87362143449258   -0.94684174216994
O           0.38404132513757   -0.92598817710671   -2.24221641174363
H           0.30345839688593    0.06211926041774   -2.25415044766223
H           0.24042769663603   -1.21199612462885   -3.14567499583771
O           2.26988435294862   -0.21070748490230   -0.29786841016821
H           1.90681756700813   -0.58231942550685   -1.11362215372472
H           1.71734234807755    0.57914559669452   -0.12069179601346
H           1.78717988420445   -1.18604546674445    0.89014691026848
O          -0.09296451486754    0.39243765362548    2.51645659479971
H           0.19918474521371    1.02047241023430    1.82780236631470
H          -1.41234246306991   -0.03062383504218    1.73360489325373
H           0.47454618419126   -0.39028266150505    2.39611956456291
N          -2.07673111133996   -0.30192815911732    0.94644336746262
H          -3.02752161923623   -0.43734585929748    1.26904790955366
H          -1.67770229288316   -1.17727340925439    0.49438483889539
H          -2.02222206809961    0.47752902675612    0.23170471443697
