    26
        -50.47126132  Gyration_radius:  2.42925592488 Dipole_moment: 4.304
 S          -1.04719678918209    1.58381822284596   -0.21469663461396
O          -0.67494136785452    0.83108043434327   -1.40798502301941
O          -2.39274205930260    1.24291386189208    0.22358007187801
O          -0.05963752960418    1.47024098913653    0.83477449038575
O          -1.09297402100663    3.10523944873866   -0.63505725313558
H          -1.90407174589877    3.14981553362581   -1.13014467358667
O           1.73753458425795   -1.69875096783968    0.57795079400916
H           2.52051336797816   -2.24525526569866    0.64963373297563
O          -0.52372356590797   -1.79839951603396   -0.96247600527571
H          -0.56308253150307   -0.87253923771298   -1.27936694267684
H           0.33719886041494   -1.88341596055844   -0.51062817613072
O           1.70539056716011    1.06079650566575   -2.57145464083941
H           1.73408525682293    0.36309905703871   -3.22829983244884
H           0.79329960315891    1.06246990384465   -2.21553331615432
O           2.40985735226306    0.74183883760718    0.03660281720922
H           2.38375957401818    0.90631398449735   -0.92470883672196
H           1.60366975934951    1.16662282780340    0.38410276918711
H           2.06067565090629   -0.77313738455838    0.35461763832393
O           0.09169090940844   -0.65177316795961    2.51191024774921
H           0.76354556217618   -1.13758735609550    1.99742643192025
H           0.11875585128938    0.25249112012465    2.14918814852829
H          -1.27279756858271   -1.07286033794763    1.82646786084826
N          -2.03311895473354   -1.19805395805643    1.08702279678162
H          -2.81538848191087   -1.75207586398092    1.41643673287921
H          -1.54919233066591   -1.62579269081173    0.23744695351268
H          -2.33110994304963   -0.22709899990834    0.79318980840971
