    26
        -50.47126131  Gyration_radius:  2.42927558778 Dipole_moment: 4.303
 S          -0.18584107342730    1.63969985396626   -0.96340606868303
O           0.72369275158410    0.62614350465008   -1.48739326859116
O          -1.48073827471626    1.57689543487473   -1.62526815721561
O          -0.27981779013816    1.59849134288950    0.47847323500084
O           0.43395322215909    3.04237957155879   -1.33998631910044
H           0.24333663163331    3.10016864808977   -2.27020806096430
O           0.37052376834282   -1.77494628025001    1.71826240600526
H           0.72061594453260   -2.39830648233675    2.35522628688804
O          -0.10167585026818   -1.86267648962614   -0.97735136737012
H           0.14355735535150   -1.97495894800174   -0.03937516621837
H           0.31033877017197   -1.01928459469755   -1.25685134624398
O           3.19864684975999    0.29942388493409   -0.57075356965587
H           3.51431531365192   -0.50928061098403   -0.97742642928573
H           2.33416334301586    0.49426711188503   -0.98703912872980
O           1.77529056945135    0.39937021288810    1.74541480382033
H           1.08749585445813    0.98931204874358    1.38484529078115
H           0.96201719618816   -0.96320329807931    1.76551361205011
H           2.46857327237679    0.37619595583804    1.05937953453213
O          -1.84786062586269   -0.15829304376270    1.81765880713265
H          -1.14817105488864   -0.82155824868603    1.96816772427401
H          -1.36400107611054    0.64616962103593    1.55551915412209
H          -2.38809976902643   -0.51448712236529    0.37197828143750
N          -2.41359947478833   -0.67606739082152   -0.68340105490144
H          -1.59292275690092   -1.32238930260443   -0.90165447618891
H          -2.18177654482405    0.25080369167363   -1.13624591814045
H          -3.30201655172026   -1.04386906081171   -1.00407881475508
