    26
        -50.47150101  Gyration_radius:  2.42624771033 Dipole_moment: 3.423
 S          -0.42676982406380    1.83216703127154    0.01623902043667
O          -1.83819944113509    1.92340093919503    0.35591430536547
O           0.35168584141680    1.28782587527531    1.11897861098078
O          -0.19258036654533    1.13108763589876   -1.23031026654361
O           0.08263243810472    3.30905584916881   -0.21496095390558
H          -0.13939893970481    3.73258713621812    0.60729198105036
O           0.95944030276579   -2.29626792280569    0.27172014983195
H           1.51239556060964   -3.07765909527552    0.29574889420016
O          -1.02677144684901   -1.41166865402385   -1.39060588208535
H          -0.30747596154862   -1.86523548604487   -0.91170635358006
H          -0.70246794364835   -0.50081945032294   -1.53212426624293
O           2.28882458643426    0.97940829309201   -2.18784019851961
H           2.22107866060802    0.57790743865305   -3.05552455300595
H           1.37255503011281    1.16358830095435   -1.89956130400481
O           2.44823687817285   -0.17526138984976    0.27479279779098
H           2.62001045366174    0.18051755230031   -0.61599635089146
H           1.79726770159967    0.43782159599615    0.66551582668825
H           1.58586869824131   -1.51162016196379    0.24231019122095
O          -0.45837732035086   -1.02322421146368    2.25299373662704
H          -1.79972193588921   -0.86413105436548    1.42994742518635
H           0.07363320198763   -1.63167848460323    1.70692081001640
H          -0.09119233261314   -0.13851273860383    2.06037450492546
N          -2.46692012401627   -0.59689912321257    0.63937614321462
H          -3.42436485540800   -0.87776650609180    0.81755225236732
H          -2.06409733600732   -1.03536657291766   -0.24572617291106
H          -2.37529151592868    0.45074319352409    0.52867967178551
