    26
        -50.47150115  Gyration_radius:  2.42624914317 Dipole_moment: 3.425
 S          -0.66015806034841    1.74136776676382   -0.26757897496607
O          -2.11079062546136    1.64303670446289   -0.22525466664090
O          -0.06681470217742    1.40979315198991    1.01940001655489
O          -0.07705949907004    0.98882347345483   -1.36022437069017
O          -0.31362263088126    3.25576924527687   -0.55136988965482
H          -0.75602779216623    3.70350841277391    0.16189375276863
O           1.17654782766862   -2.09441643079757    0.70193473747222
H           1.81069470949668   -2.77858513035382    0.91801866451201
O          -0.51495256607319   -1.65577264700884   -1.40479824737119
H           0.14128794663883   -1.95547233156083   -0.74758954689663
H          -0.29200504736354   -0.72020422895237   -1.57758999380354
O           2.54830692281923    1.14028365099257   -1.78691432141623
H           1.57572207835444    1.20545785380541   -1.70687832380933
H           2.71857045238526    0.66343319096424   -2.60078042719096
O           2.33622407035757    0.22197591302181    0.76921776499403
H           2.64305413961245    0.52852323112814   -0.10350156095898
H           1.54181307517356    0.75744628075595    0.95495326574267
H           1.68532027344523   -1.22842820252021    0.71206976223521
O          -0.78239564896572   -0.90077751821004    2.21647200489205
H          -0.07138861331630   -1.46205564363763    1.85457987212999
H          -0.50362423673605    0.01151529782188    2.00518221674469
H          -1.92942164436193   -1.01244961144435    1.13297482343514
N          -2.44476744696762   -0.91287421718004    0.20238689650351
H          -1.81043530235397   -1.35324741026530   -0.53347791115399
H          -2.47172783616902    0.12449508914247   -0.00117076320996
H          -3.37234984355112   -1.32114588043194    0.21804521978042
