    26
        -50.47150097  Gyration_radius:  2.42626682528 Dipole_moment: 3.424
 S           0.33491610006046   -1.80624514742716    0.40453545396281
O           0.49434590805500   -0.81509230920965    1.45839611991725
O          -0.96304390473691   -2.45859524152788    0.48029710424941
O           0.61916588810241   -1.27032629037619   -0.91158457899780
O           1.42167584956415   -2.92283210595618    0.66166726375476
H           1.15930485660125   -3.27165325013073    1.50684388730367
O          -0.13022360181963    2.49535040590705   -0.14986901637782
H           0.04297599929140    3.43441638748462   -0.22124581375969
O           3.00667144870126   -0.18656001497348   -1.38299942231480
H           3.03692689784484    0.00689501968246   -2.32130708424594
H           2.19318450783425   -0.70980274382324   -1.23776379882307
O          -1.05813812923924    0.58506416044876   -1.87702627124105
H          -0.37892849880848   -0.09850903683573   -1.71490426028622
H          -0.73925477954138    1.37624758386162   -1.40302750000794
O          -1.43594752337788    1.04262074655173    1.78422534032620
H          -2.31773314154040    0.18597314068151    0.78929996665876
H          -0.71507891140455    0.39313756685725    1.89916719179201
H          -1.05218263250063    1.73299180891191    1.21184668828666
O           2.00031011782029    1.27760498422801    0.68264501152816
H           0.73298521737317    2.07364113074208    0.14335000283357
H           1.55826275220267    0.50682996035941    1.08614380125225
H           2.54123345977040    0.90407097101696   -0.03675137419700
N          -2.57592646890896   -0.46421355725213   -0.01831994541957
H          -2.05637121419866   -1.36712415792104    0.16338492009356
H          -2.14405652529789   -0.03245281445007   -0.89289517424118
H          -3.57507367183743   -0.61143718687252   -0.10410851204013
