    26
        -50.47150114  Gyration_radius:  2.42625515829 Dipole_moment: 3.427
 S           0.73673230857560    1.62982860123653   -0.58378236436597
O           0.55254749721204    1.41923616680483    0.84450324703307
O           2.10272286690324    1.34130317509605   -0.99198144575349
O          -0.24879115609409    0.92847634270438   -1.38190917291084
O           0.49572967441251    3.16747328953213   -0.85134000445340
H           1.19155385266373    3.57413748112297   -0.34605773630002
O          -1.12357909520066   -1.89788799738247    1.18283414549550
H          -1.72991502506569   -2.48536913762060    1.63465696100763
O          -0.15804022982656   -1.75091354935401   -1.37400462264272
H          -0.59902499198634   -1.94097151994029   -0.52439748056597
H          -0.31442587957731   -0.79966712500440   -1.53384977000767
O          -2.83666569848887    1.41224759444206   -0.97348653691584
H          -3.31231406330935    0.93740014226578   -1.65692812021811
H          -1.88899345641360    1.35086144018107   -1.20737909997278
O           1.34182052378949   -0.92819326062244    1.91677917254916
H           0.49240141074973   -1.40115261617325    1.83765164682438
H           2.05972558745129   -1.22419208127761    0.53879970046322
H           1.11757948903576    0.00609874086607    1.73930967420967
O          -1.92445612534032    0.55255603583601    1.44547027995385
H          -2.45701437576286    0.87020860555548    0.69365971177921
H          -1.49850781702975   -0.97232091499712    1.29052720563235
H          -1.05608245703937    0.98364982686449    1.33401985886907
N           2.25753041863228   -1.22230691241891   -0.51115849469542
H           2.33808495222455   -0.20437355798721   -0.78601191114016
H           1.37419725284362   -1.59674894866379   -0.97736067711612
H           3.08718453664429   -1.74937982106568   -0.75856415675374
