    26
        -50.47150098  Gyration_radius:  2.42624400559 Dipole_moment: 3.423
 S          -0.63011219651378    1.61299380942857   -0.73258310209643
O          -1.94028483626488    1.32580512832452   -1.29553298601058
O          -0.62766167063056    1.45808786577983    0.71452306396518
O           0.43376732212865    0.86736391052375   -1.37469107837012
O          -0.33073841433591    3.13521658797586   -1.02775491590748
H          -1.07931132483753    3.57074855784357   -0.63416443476069
O           0.93697116909090   -1.86313340695851    1.38349516290435
H           1.47305179897485   -2.43916773679518    1.92914031921500
O           0.29392397491866   -1.80830681000616   -1.27623932470430
H           0.48611895161317   -0.86653900232881   -1.45220318192809
H           0.62428142164014   -1.96955117849827   -0.37217917771674
O           2.95853249409743    1.34049897942693   -0.66742122192526
H           2.04617636362404    1.27902247710524   -1.01436256576849
H           3.50865850410910    0.83752665411865   -1.26997655862149
O           1.74095759702062    0.58596206845885    1.65043558607560
H           1.31146918131730   -0.93862412661919    1.50124377543967
H           2.36777648933643    0.86746116496375    0.95947575902521
H           0.90042479734084    1.02280729482266    1.41582498608592
O          -1.58250522417453   -0.83414869938016    1.77162066851733
H          -2.13160330172360   -1.17576892109236    0.32774886320579
H          -0.73815866363765   -1.32058011159426    1.81539911922022
H          -1.32222269839833    0.08940270709465    1.58745349752735
N          -2.19904413089435   -1.21350959061331   -0.73775901380364
H          -3.00156008197988   -1.73899804764763   -1.06513152190276
H          -1.27219813951980   -1.61818436568848   -1.07701869433521
H          -2.22670939229789   -0.20638521864324   -1.05934304332964
