    26
        -50.47150110  Gyration_radius:  2.42624758396 Dipole_moment: 3.422
 S           0.04993951663471    1.62607816865922   -0.94550137649095
O          -1.17418714694969    2.33617673830287   -0.60925640635892
O           0.91003336050927    1.46812150397212    0.21794335904436
O          -0.19680238950184    0.37271401356565   -1.62989663224799
O           0.83603109491304    2.53273187574383   -1.97229216619386
H           0.92853373097135    3.34964142045663   -1.49375135670090
O           0.40498848554028   -2.03573215900239    1.39839167441705
H           0.73900686441743   -2.83804239850968    1.80045784201469
O          -1.64087723310343   -1.47583259888493   -0.33142981732365
H          -0.96154805017627   -1.84616493714510    0.26337624617130
H          -1.14723944770115   -0.91971869216529   -0.96534395316566
O           1.87117340555844   -1.04757824146836   -2.52682223893164
H           1.12343356194458   -0.45223431163278   -2.31952662169572
H           1.50291354397838   -1.77408992515432   -3.03210674833395
O           2.32407155027317   -0.82170618881355    0.15013136221726
H           1.95412801175548    0.08031765419673    0.19307556543468
H           1.17881045850813   -1.62675019439845    0.90566013584237
H           2.36099297605763   -1.02930099606632   -0.80125677729324
O          -0.14565428067887    0.43283518923851    2.47546126882798
H           0.07613436281835   -0.50210875791247    2.30770184196421
H           0.36987310522078    0.92850391426510    1.80969944118955
H          -1.56316790678020    0.60456967317308    1.79481828345893
N          -2.31278641601980    0.65483202317696    1.03516241993160
H          -3.23926940798605    0.83491284774528    1.40467313538020
H          -2.25156059739293   -0.26618306141884    0.50045187721193
H          -1.99697113280778    1.41400744007760    0.37017965162666
