    26
        -50.47150092  Gyration_radius:  2.42626333599 Dipole_moment: 3.426
 S          -0.62114308398187    1.44492883398466   -1.03048477731608
O          -2.03565399641446    1.59130318296074   -0.72448623426647
O           0.20643040182383    1.72403541093061    0.13367207226627
O          -0.30741757662154    0.17022911874358   -1.64440124149861
O          -0.27228680295741    2.54289692487377   -2.11058019172318
H          -0.54571679818559    3.34641846025905   -1.68101135264751
O           1.19936140651913   -1.60378065270150    1.50121739000031
H           1.83317693728496   -2.16961212808995    1.94286481495365
O          -0.86608915391906   -2.04409967479517   -0.23982815924471
H          -0.10350576616084   -2.06453701772500    0.36884425764168
H          -0.64071726457929   -1.36545878114801   -0.90577316241719
O           2.17987788617952   -0.28873548150391   -2.48230445882274
H           1.24787698033964   -0.05457621937555   -2.30050893367360
H           2.15957352492038   -1.12651785816514   -2.94754562446606
O           2.45128809833433    0.23895540131389    0.17726026404966
H           1.73635605408321    0.90319898353411    0.17499256531440
H           1.73763388907099   -0.93344327520813    0.98188740824538
H           2.58811386485205    0.01889710247301   -0.76208957216315
O          -0.35244033167754    0.45712972222695    2.45038421435274
H           0.24342352310209   -0.30576515869274    2.33022282024300
H          -0.08199119608384    1.08915798560373    1.75615037330764
H          -1.70074830314410   -0.01642079227946    1.77190910472317
N          -2.39045846166523   -0.32439132152568    1.01637652098986
H          -1.94087206799267   -1.16125367439685    0.53130997696074
H          -2.41123609567425    0.46170843813643    0.30923243510022
H          -3.31283568746015   -0.53026753943830    1.38268950009564
