    26
        -50.47000116  Gyration_radius:  2.46303682133 Dipole_moment: 2.837
 S           0.44091063579908    2.17067374948135    0.02344561023975
O          -0.13677040221437    1.69594676314522    1.25637415827807
O           1.88285769282000    2.20993616186999    0.00132108562296
O          -0.13135871759631    1.45437934290107   -1.12868172451411
O          -0.02419025041590    3.68177117115621   -0.17664124092933
H           0.78890753758253    4.14535738896121   -0.00700999721918
O           0.31253720308675   -1.96946176196663    1.55294698645744
H           0.77033644545179   -2.54607448878108    2.16573613925070
O          -0.58483883608731   -2.35262310441784   -1.01967541981274
H          -0.25688790089730   -2.42636320564519   -0.10421963843207
H           0.12392617102580   -1.90986105750089   -1.51535558170581
O           1.24497356633796   -0.56923283858186   -2.08171310196767
H           0.75275793702357    0.23157526515893   -1.77883875365037
H           1.70307459837320   -0.31657138688601   -2.88406466754023
O           2.13477920559474   -0.38671196814171    0.53129032829631
H           2.07928003342792   -0.63422169752095   -0.40477628151928
H           2.11094268364108    0.58787095328693    0.52667875961912
H           0.98666459366505   -1.30374220281412    1.25111869003920
O          -1.74376339080280   -0.23262810115652    2.08964371268286
H          -1.20256007246346    0.57912535034816    2.01871864026726
H          -2.10706454434701   -0.23637007734851    0.57204646896941
H          -1.08700027167032   -0.95226057913635    2.10833121294815
N          -2.06641534248993   -0.22845687681713   -0.50097177403882
H          -2.97617144744360   -0.08096503893266   -0.92143354778433
H          -1.62462871875861   -1.14513807665033   -0.80439125606752
H          -1.39029840866560    0.53404632599044   -0.76987881748231
