    26
        -50.47395393  Gyration_radius:  2.4083722182 Dipole_moment: 3.053
 S          -0.43829950059230    1.60483150292756   -0.57698427617144
O           0.35267115608332    1.45841983913862    0.63787665758149
O          -0.24744913794151    0.44896165225745   -1.46161442490244
O          -1.83670462863637    1.83943362551479   -0.29511924869514
O           0.10936557499273    2.85400705024034   -1.35098162124351
H           0.98334609233094    2.57332726619492   -1.66429354057032
O           0.96150034968330   -2.16060867497538    0.99717107450444
H           1.53760912702298   -2.85744944569374    1.31383125781395
O          -1.20191129190009   -1.91883106349815   -0.70352961993190
H          -0.45976826853446   -2.20954704159156   -0.14538050136990
H          -0.86166289825836   -1.12494308088938   -1.16498518508960
O           2.06565481312114    1.19653432165991   -2.29974556503286
H           2.17137750235099    1.14784797867869   -3.25161101970559
H           1.21450246605241    0.74421944835593   -2.08515266676857
O           2.43876727173716   -0.11560629959210    0.22708539377961
H           2.70066896492355    0.11993808042276   -0.66956728344127
H           1.75128821903524    0.54288784741887    0.46315102608527
H           1.55700419750041   -1.44574922817668    0.65295978971843
O          -0.42417498148183   -0.29832135350162    2.50981658351572
H          -0.07256013134820    0.47299102273276    2.02180013021593
H          -1.81410479247864   -0.36725923812135    1.75115401755496
H           0.08410035267988   -1.05419591052400    2.16350412375029
N          -2.51851929637198   -0.37061447419296    0.94841690349880
H          -2.17434169510894   -1.11548928835776    0.26648626533221
H          -2.40634744467234    0.55878924960207    0.45928696386574
H          -3.47201202017122   -0.52357377599683    1.25642475569358
