    26
        -50.47395399  Gyration_radius:  2.40838067242 Dipole_moment: 3.049
 S          -0.07660456298859    1.74710658847076   -0.20570564127833
O           0.96568433415936    1.06873069553921    0.57437032294431
O          -0.59763616478041    0.86658009256928   -1.24310726460718
O          -1.12276487387100    2.27440182926899    0.64124785071849
O           0.61776733665234    2.95922455813769   -0.91844177331644
H           1.40785859762468    2.57267955406975   -1.32703451200285
O           0.13060119261385   -2.56120437057464   -0.09843759950428
H           0.32491593012292   -3.46969578773946   -0.33221051404946
O           0.26823114512520   -0.96216139947519    2.14959742719516
H           0.28075151387994   -1.67697565648539    1.48945882172098
H           0.68124875732241   -0.20167171585622    1.69130699798221
O           2.78240058071460    1.31754845960730   -1.22838358634427
H           2.22335197360879    1.11415950198613   -0.44024263677575
H           3.62303205616608    1.63684256147493   -0.89511818802541
O           1.18588786604432   -0.96739975995998   -1.91576731474447
H           2.01391243304540   -0.47781138180306   -1.86351042640964
H           0.60404802000385   -1.99805856886128   -0.76395711149233
H           0.48985338607009   -0.28550686010580   -1.80344171638441
O          -2.21520434246959   -1.16137186416201   -0.56084169890340
H          -2.35536856465923   -0.46350654030865    0.85544405458960
H          -1.77024203326221   -0.41292992670472   -1.00637411139922
H          -1.51039038329194   -1.82365721178586   -0.44149139252435
N          -2.09279651214095    0.09045941733919    1.72994131868042
H          -2.84101265623420    0.13502938691899    2.41228440952181
H          -1.80927865353718    1.05025504527406    1.39230102962501
H          -1.20824639592551   -0.37106663685054    2.10811325480139
