    26
        -50.47000666  Gyration_radius:  2.46325262428 Dipole_moment: 2.710
 S           1.81930264675519   -1.18076795761381    0.45334118516900
O           2.69221606684324   -0.20761815455068    1.06303846755961
O           0.68644909189946   -1.56496461279971    1.26013759799853
O           1.39175272076326   -0.80399727605037   -0.90296805060473
O           2.71577216240369   -2.48000198217480    0.23481718307413
H           3.39239330956191   -2.34848693949217    0.89032846919468
O          -1.81461087581550    1.18288943488916    1.29875211369656
H          -2.19205791336456    1.74249659461781    1.97841582512464
O          -1.66011104087949    1.45262463456920   -1.43503328368317
H          -1.86139524675979    1.50589689578147   -0.48229883793760
H          -0.74289881620149    1.76027414383115   -1.52526422567971
O           1.09062806914028    1.75872420078346   -1.40009634452564
H           1.26950668159779    0.79974663477395   -1.24842890919446
H           1.84009402417972    2.09829567703374   -1.89056414796838
O           0.77013935201289    1.60917890360710    1.34409480666692
H           0.90704227024604    1.96893569367492    0.45392296365621
H          -0.82831978200908    1.26862723540263    1.39278003230463
H           1.46235606065787    0.92909294619789    1.44034225383153
O          -1.95276777269968   -1.55047146306924    1.09506287433693
H          -2.09708293119394   -0.61164589045368    1.31266130954597
H          -1.61096980732000   -1.42839654142960   -0.42195718485469
H          -1.02304474463197   -1.71294625919110    1.35342294559472
N          -1.18469883324915   -1.14440272222310   -1.36590177117547
H          -0.13959621113910   -1.13319916915691   -1.23062787656656
H          -1.47608442001862   -0.14032122145056   -1.55187435585588
H          -1.45401405891797   -1.76956280590642   -2.11610304165959
