    26
        -50.47395399  Gyration_radius:  2.40831815904 Dipole_moment: 3.052
 S           0.04123847548073    1.75816195043017   -0.08944650020688
O           0.02480559885264    1.09452327860823    1.20759263753815
O           0.62171044842147    0.88036722677969   -1.11300159371796
O          -1.26604655911891    2.24010306057611   -0.47478923233180
O           0.99321434118534    2.99912015807496    0.02562889481342
H           1.87832124558387    2.61163107567034    0.10989848938804
O           0.13298942065147   -2.51775060177526    0.47818660605400
H           0.40051757753694   -3.39345297772121    0.75985823827767
O          -0.72264272982354   -1.29781917222760   -1.84786676455459
H          -0.42680541471413   -1.90243423598091   -1.14517780605037
H          -0.14111796969107   -0.51539935369993   -1.75506313153618
O           3.05241933325455    1.24095379977418   -0.35564579869885
H           3.66099829905568    1.43106053245950   -1.07206152892731
H           2.19932837039579    0.96958296723427   -0.77243904399218
O           1.90186334691928   -0.76436173928278    1.34633329076289
H           1.23568043936660   -0.04949608150862    1.43089629209598
H           0.85848783619780   -1.90341317572403    0.76176621299006
H           2.62600776775107   -0.36231753375400    0.85433710426022
O          -1.74960590234107   -0.86469457458219    1.66112648997414
H          -2.49484712289276   -0.38110996418481    0.34885992446250
H          -1.17784756137532   -1.59629333346939    1.36533633801519
H          -1.14506995615250   -0.09887421495563    1.73061241746167
N          -2.64124770994140    0.00850508197390   -0.63478905418965
H          -2.02117630773724   -0.58043471886943   -1.27279842820937
H          -2.22727857266478    0.98011561511552   -0.62735805352704
H          -3.61389667420303    0.01372692104739   -0.91999602014011
