    26
        -50.47395397  Gyration_radius:  2.40838412348 Dipole_moment: 3.049
 S          -0.14000035832938    1.23667168129952   -1.24558920605696
O          -0.18511938763911    1.60999837832571    0.16209829161487
O           0.60846522666026   -0.01315914422055   -1.42654140554925
O          -1.45798286639129    1.16273612293774   -1.83491600364933
O           0.66151050058050    2.35023892628445   -2.00519341357118
H           1.57377196480754    2.23786090885521   -1.69564878054022
O           0.36473503537167   -1.51445692074558    2.03935987949336
H           0.70239159483914   -1.93597885178705    2.83060595561472
O          -0.43628030745102   -2.27740135389078   -0.49170454305542
H          -0.13183813189114   -2.21516995517050    0.43042827459528
H           0.04951842388836   -1.56505473162398   -0.95596387059864
O           2.92048464959680    1.07527142297737   -1.14030398662846
H           3.55886657372587    0.81897420439229   -1.80847280975093
H           2.13641317546011    0.48623921303872   -1.25584103882267
O           1.86381008671386    0.58319795911118    1.48309018442049
H           0.99637928949745   -0.77933671678311    1.82772743016765
H           2.57652930234723    0.64594089915532    0.83799025510153
H           1.12034924808684    1.07718093316992    1.07658429852148
O          -1.76915331860519    0.24150321291680    1.83926245737659
H          -2.45977466336376   -0.37386365784107    0.55200654491797
H          -1.10144535271402   -0.41827732283675    2.10092896653578
H          -1.25728670404493    0.92935129710477    1.36862993979898
N          -2.57107434950956   -0.76144306771079   -0.43690097487642
H          -3.51393294090436   -1.07462337626579   -0.63772732815258
H          -1.84436991626371   -1.53769763303364   -0.52528047270405
H          -2.26496679445395    0.01129757234443   -1.08862864419417
