    26
        -50.47126125  Gyration_radius:  2.42925513155 Dipole_moment: 4.303
 S          -0.39284523636489    1.61489668214935   -0.94370215306204
O          -0.15246434244678    0.40144080403334   -1.71753547800566
O          -1.81802314247139    1.85184485905431   -0.76594731433185
O           0.34640020249647    1.62786289929744    0.29849108742161
O           0.14942185042825    2.81891726443088   -1.80956556673293
H          -0.52209779649480    2.90050649489589   -2.47838319025512
O           0.94598487536985   -1.77506927375151    1.47987965224092
H           1.47311456839847   -2.45151415407293    1.90581817088833
O          -0.98713646745666   -1.80183437941845   -0.45936012969185
H          -0.27642572005873   -1.95034651353694    0.19282560618689
H          -0.65982815463394   -1.08877227150851   -1.04566687604973
O           2.28932463896459   -0.49604939374709   -2.27037602925490
H           2.15827531345054   -1.36766406521928   -2.64745335266954
H           1.39694289804061   -0.10619546665309   -2.16924895259908
O           2.49072948690252   -0.00256037449612    0.39673434495578
H           1.84444853463186    0.72773947072684    0.38693034367288
H           1.59757976818542   -1.12849061855290    1.06935920578115
H           2.64957107893439   -0.20750787577090   -0.54389060391575
O          -0.46991203200635    0.33037427193213    2.53238803724895
H          -0.08250188970334    0.98858871996759    1.92690458711822
H          -1.79378951095827    0.08561613438481    1.69768992819111
H           0.05164795382523   -0.47883021670431    2.37337269510869
N          -2.44675579850577   -0.08698131369104    0.87047265294819
H          -3.40886144824840   -0.23582272888513    1.15264789281105
H          -2.03598916372238   -0.91674147232439    0.33994565151811
H          -2.34681046655438    0.74659252746535    0.22766980047467
