    26
        -50.47250315  Gyration_radius:  2.48712867241 Dipole_moment: 2.881
 S           0.28332190241227    2.01820107398589   -0.99438765575060
O          -0.74289971361668    2.44576785593411   -0.05142527484574
O           1.61695294437206    2.13156920547818   -0.43562958144237
O          -0.00138446022905    0.70889146861134   -1.54957674202220
O           0.22682516654060    3.03320488534384   -2.20936148590738
H           0.56542159168908    3.82382243554176   -1.80353460497575
O          -0.14827362861311   -2.75075887642574   -0.03437105991201
H           0.04200535592331   -3.67764357119409   -0.17987408062360
O          -1.99121083558346   -1.08700947112690   -1.23086854324738
H          -1.34235001164080   -0.46740361246709   -1.61284026905679
H          -1.45725362762604   -1.83034701085481   -0.89546593535346
O           2.10828040927271    0.28587597450087    1.30651120702999
H           2.79471901109128    0.61441869744129    1.88893200981327
H           1.91635615768716    1.02199686702481    0.66812473501631
O           1.74205185388226   -1.23796987845588   -0.99498429246086
H           2.15149501693806   -0.85513892512615   -0.20522709776351
H           0.60716970940385   -2.23857055061312   -0.44607728953519
H           1.19072684623375   -0.51573705761660   -1.35777107405555
O          -0.14145468025680   -1.03565695148794    2.12055999661532
H          -1.31993329768604   -0.12752468797822    1.54310283238039
H          -0.15488435040894   -1.78335831083903    1.49611457921192
H           0.68874756021935   -0.55835278725992    1.93251058330551
N          -2.01706966882093    0.39766010348958    0.93742203564116
H          -2.20310492562097   -0.21308599848185    0.08535802731382
H          -1.54800001106786    1.27915930792925    0.57821445626245
H          -2.86625432440083    0.61798982505826    1.44454454403624
