    26
        -50.47250308  Gyration_radius:  2.48711011692 Dipole_moment: 2.878
 S           0.28155792721239   -1.39009864508903    1.76936769220551
O          -0.78610639751891   -2.15223239433098    1.13328764012152
O           1.59175741058137   -1.77985554785930    1.28449529302058
O           0.04194207327830    0.03876427471287    1.70282716549206
O           0.24953721088404   -1.77074726165080    3.30688371018086
H           0.56000150356024   -2.66928944450308    3.27890799426559
O          -0.09389702914424    2.49264422974733   -1.16952256260019
H           0.11858855730942    3.38374722114738   -1.44748671167613
O          -1.92268345196989    1.58234165990316    0.68009171050534
H          -1.27256305276473    1.17043253425357    1.27876671546886
H          -1.38698792374752    2.08551561908532    0.03972411712774
O           2.05241214629195   -0.89785563125641   -1.10158888862775
H           2.70907959283189   -1.47128230060707   -1.49947974118161
H           1.87079225219710   -1.27436778597078   -0.20077117831848
O           1.80034183440574    1.48937007408426    0.31022619374440
H           1.24872987500384    1.01634997722717    0.96541529506180
H           2.17390111487041    0.78713738711415   -0.24217472225281
H           0.66608299735246    2.18666871628047   -0.59387662760305
O          -0.20010355404190    0.00906111792962   -2.35575144338422
H          -0.17590658085936    0.95451218849765   -2.12199008094177
H           0.62716472562893   -0.36535142705935   -1.99803297756220
H          -1.37386585766102   -0.51496068631632   -1.40971592700845
N          -2.05779680613646   -0.69888398888874   -0.61785693550057
H          -2.20004011095863    0.22856613995243   -0.11468918934528
H          -1.59243308241234   -1.35036798989260    0.07865036450200
H          -2.92950535419904   -1.08981804649621   -0.95570690569059
