    26
        -50.47250313  Gyration_radius:  2.48717118735 Dipole_moment: 2.876
 S           2.11463675923935    0.81907563500925   -0.00145586477378
O           1.97456634842247    1.24011620189306   -1.38234236782976
O           1.56341821381113    1.79810900805980    0.92748324586876
O           1.60483052082641   -0.51515217762157    0.25058741087129
O           3.67162964386667    0.75656705011548    0.28423852020016
H           3.95230058799703    1.60372750231127   -0.04447036587914
O          -1.83340382865474   -2.05564728706860   -0.05839208305418
H          -2.31853441224571   -2.84514887945658   -0.29886840499709
O          -0.45919220002537    1.02897485653901   -2.22805972468761
H           0.47085192841501    1.15106326102517   -1.90191113176067
H          -0.56610176623857    1.64329129933281   -2.95573377490780
O          -0.11444936107852   -1.57525244041938    2.04165360161589
H          -0.77868180451498   -1.91542942716806    1.41457197538214
H           0.67197700029931   -1.39133591328480    1.49530806409909
O          -2.26040559509753    0.66125253258879   -0.20538619226645
H          -2.30579390918849   -0.31132093628076   -0.17051937381426
H          -1.40210873825399    0.97926643645177    1.10208991583911
H          -1.68472499959930    0.86469067541211   -0.96670997904681
O           0.15126996550232   -1.63409706466042   -1.69169965726609
H          -1.08166971423955   -1.97421448001972   -0.71477616037746
H          -0.11082431938667   -0.83201470963475   -2.16698309440666
H           0.81890572062785   -1.32721695276436   -1.04575799490339
N          -0.70970304170739    0.98097685943186    1.90781791948537
H          -0.52232794192886   -0.03819648111419    2.15235805754149
H          -1.05535327833466    1.50867763162433    2.70084835665749
H           0.20888823150032    1.37923779970448    1.55610910240895
