    26
        -50.47250311  Gyration_radius:  2.48718671698 Dipole_moment: 2.884
 S          -1.47825603378489   -1.67143995710300    0.40530624715712
O          -0.58564722945392   -2.25305121990492    1.38943563202677
O          -2.28895469369940   -0.59874984564458    0.96862211378532
O          -0.80688558913713   -1.26172734924855   -0.81333488767778
O          -2.48415084799435   -2.82203971937435   -0.01173776377092
H          -2.76519222252798   -3.13680614375798    0.84049421025040
O           1.91348429643547    1.26412554269251   -1.52693637400173
H           2.69114969752520    1.44984459083546   -2.05345530671543
O          -0.73400913912241    1.01971034892306   -2.25406871335975
H           0.22240251425570    1.19634215051977   -2.18973147496566
H          -0.83421381666191    0.08969193253101   -1.97857741609128
O           1.41136360351195   -0.70456090300858    1.93469389571349
H           1.72631916856442   -0.93723132241412    2.80935254251666
H           0.62818231097952   -1.29014182869709    1.76168035211519
O           1.86403677083368   -1.22568654865809   -0.76315160694076
H           1.95631127163858    0.29187509243029   -1.29156669832144
H           1.99735549794530   -1.17334520034289    0.19464306636930
H           0.90663558944884   -1.39862900668552   -0.86643989083586
O           1.05887332934003    1.84840355261594    1.02501504082933
H           1.21743643157684    0.97991771091542    1.44098920768460
H           1.48261449623223    1.79492431982507    0.14934838361027
H          -0.48493566326688    1.87572148550171    0.62178330438067
N          -1.43829722630091    1.73421509109185    0.17480406262296
H          -2.06173481322225    2.51076276349645    0.36218946776646
H          -1.84404857554889    0.82339556945048    0.53784084541616
H          -1.26983913758062    1.59447889400084   -0.86719822958159
