    26
        -50.47250301  Gyration_radius:  2.48730662893 Dipole_moment: 2.877
 S           0.93569010547895    0.45853389399454   -2.01440584678444
O          -0.34580978661464    0.89566831573857   -2.53430528812970
O           1.61751350991825    1.51627093923617   -1.27854827841735
O           0.85975831177584   -0.77171294172206   -1.24988961442209
O           1.83712822968236    0.13732631378577   -3.27701333091915
H           1.71452552016608    0.92604427164427   -3.79396591758844
O          -0.95365835320215   -1.72306910139068    1.92621758553433
H          -1.42687506061083   -2.42144821827085    2.37882576937255
O           1.69857522443497   -1.52688752330296    1.20223783539901
H           0.83087073266827   -1.75481014011279    1.58333563764167
H           1.54251186526884   -1.47704524640032    0.24099024658100
O          -2.14484052216292    1.08056224564518   -0.68695438968294
H          -1.45212655767891    1.05014056053476   -1.39796141637728
H          -2.80923879741838    1.69965642742158   -0.99302352055871
O          -1.08407650300751    1.02615684077127    1.83166856881302
H          -1.13596102575158    0.07474839310207    2.03511267283697
H           0.48030730642440    1.20218600460095    1.56860452056490
H          -1.52145985171597    1.12802764282532    0.96523636228875
O          -1.58079359478340   -1.64341967406477   -0.60059279747009
H          -0.69657415125967   -1.44899717648995   -0.97139562280535
H          -1.23051722318806   -1.77021274460665    0.96513179274773
H          -2.06720158449673   -0.81045322276509   -0.68815381141839
N           1.49978209165267    1.09207100942755    1.29092486165354
H           2.10901456426300    1.67265806924965    1.85536412637252
H           1.59190548229240    1.33115875861351    0.26115605424982
H           1.73155007786621    0.05684630252211    1.38140380051024
