    26
        -50.47250308  Gyration_radius:  2.48722173058 Dipole_moment: 2.890
 S          -0.24037180285615    1.81416081538667   -1.33951924498310
O           0.84277404632329    1.35841716170965   -2.18957346323645
O          -1.51000458462179    1.18837497653814   -1.68853367470696
O           0.04958807413992    1.70034797394144    0.07700328006709
O          -0.40890735866149    3.36218928201882   -1.63104874629845
H          -0.45283201432693    3.36591779619395   -2.58105221815185
O           0.80759938914375   -1.24498258535103    2.32177595388437
H           1.32570793692517   -1.54801204721102    3.06757599858107
O          -0.17526997181705   -2.35644508970910    0.00144818811239
H           0.46271721113709   -1.97553278146863   -0.63139192768336
H           0.18420317209230   -2.15100008971985    0.88333845651011
O           1.60045627236434   -1.04380407172155   -1.60798961711584
H           2.00715101330444   -1.41547825258962   -2.39208069442931
H           1.29230179829021   -0.13530321610038   -1.86480250422087
O           2.21459578720280    0.29088392489048    0.75770648405025
H           2.31425165125933   -0.23462010599258   -0.04957781339847
H           1.52868987445909    0.95199586285540    0.53485491546206
H           1.40658944254880   -0.64958997158950    1.78394689381845
O          -1.23098748219285    0.60485643758509    2.18570076047107
H          -0.54917797518061   -0.04224030340920    2.44363069767305
H          -0.77258621027517    1.22413181251753    1.58803178412002
H          -1.97223764057699   -0.15387742775201    0.99563900311576
N          -2.16945476864344   -0.62689501102783    0.06239130483243
H          -1.46173490397884   -1.41299830225150   -0.03705601207394
H          -1.97111782315315    0.09621193907070   -0.68851685622136
H          -3.12194312307634   -0.96670875684257   -0.00190094816163
