    26
        -50.47000310  Gyration_radius:  2.46330481768 Dipole_moment: 2.787
 S          -0.23590644624550    2.15921862874119   -0.43716192400087
O          -0.17859350420567    1.87363719241974    0.97544009357764
O           1.02888317747340    2.50584282251463   -1.03826604549672
O          -0.94046998995917    1.08624873482203   -1.15748297981375
O          -1.16200329911341    3.44134004146252   -0.63260955646223
H          -0.51024363089582    4.11092700151525   -0.81044232126713
O           1.40208286880756   -1.43797153709144    1.53310178549809
H           2.19334161580627   -1.74310390318139    1.97848014444801
O          -0.19188820697648   -2.59424796278004   -0.38797714484673
H           0.44427895725439   -2.37962914822704    0.31937702677177
H           0.13344880676823   -2.13384686068640   -1.17937100153178
O           0.53863406232708   -0.74937674911512   -2.31658250832183
H           0.58612993724391   -0.59683620244392   -3.26105289543387
H          -0.02549289633852   -0.02819656639424   -1.94683312949731
O           2.19946875058712    0.22404504560146   -0.32924850341353
H           1.89094282031959    1.14120697814788   -0.44928099924927
H           1.70118581767783   -0.72983945070878    0.90218705970094
H           1.89292369406946   -0.23965121457930   -1.12392256034142
O          -0.74325559407723   -0.11716775223904    2.62262318847751
H          -1.60196543665091   -0.55473304663884    1.39542062297805
H           0.05766583155710   -0.65016092318711    2.46798318764219
H          -0.52580991155183    0.75443022259011    2.23517740296973
N          -1.94744353246915   -0.78775573277025    0.40577568251843
H          -2.94747257882803   -0.94584115646402    0.37220299601660
H          -1.39351601301665   -1.62948221817616    0.07070790969584
H          -1.66492530970537    0.02094374689940   -0.20824552045150
