    26
        -50.47001094  Gyration_radius:  2.46314641531 Dipole_moment: 2.615
 S           1.60804326043664   -0.11046063866959   -1.52151772129485
O           2.60923140232965    0.78565803483766   -0.99825796816308
O           1.46117948300831   -1.34125953455661   -0.78096868912436
O           0.30491239653134    0.53537222710808   -1.73528877287016
O           2.09170646717363   -0.49506916594423   -2.99017082755256
H           3.03688585769812   -0.49619851403856   -2.88231832604530
O          -0.31399401464600   -0.64167807061111    2.41980975268753
H          -0.09131697593286   -0.72511628527055    3.34770632588140
O          -0.36444742298009    2.47776576934509   -0.09488191065066
H          -0.23137346983673    3.33157466712071   -0.50828451820015
H          -0.09428685048566    1.80184875595595   -0.76141895428176
O          -2.23506620112158    0.83393754313448    1.11509192720585
H          -1.69518867169130    1.57716608403194    0.79866064795310
H          -1.67048576322155    0.35081544760297    1.74670517212399
O           1.44719257462047    0.99612006239531    1.38228820437991
H           0.87081148125100    1.72247386428943    1.09824878394252
H           0.41760732506855   -0.10548958759578    2.01180321631882
H           2.01185794812880    0.81687754609427    0.60737570130528
O          -0.44550289322659   -2.62383194100580    0.52664318315501
H          -1.34282333786062   -1.69495667359367   -0.34686232137822
H           0.37780145259578   -2.36900160778813    0.06258208280722
H          -0.41972217220433   -2.10807890140876    1.35299069612221
N          -1.76353779528749   -0.85184193095193   -0.86245185630461
H          -2.47395869153917   -1.12184670216115   -1.53217386041856
H          -0.95938834784150   -0.35829723638845   -1.33184117014273
H          -2.13613704031728   -0.18648324159055   -0.12346878762031
