    26
        -50.47001093  Gyration_radius:  2.4631326694 Dipole_moment: 2.615
 S           2.18848405176913   -0.30490341755021   -0.17459791264475
O           2.71800012650765    0.56856262597661    0.84317468731711
O           1.50613855537464   -1.47129072993486    0.33419263979170
O           1.36498403524165    0.39563543000506   -1.17055926142299
O           3.44637228576240   -0.81684655971909   -1.00786255843213
H           4.11290695709409   -0.86552295083528   -0.33087021512168
O          -1.80770294809060   -0.45345416020109    1.70020453997820
H          -2.22042338684958   -0.48449197372552    2.56404991925653
O          -0.00923060528974    2.48171596987542   -0.35068758660710
H           0.42599687902100    3.29606179632463   -0.60568150325156
H           0.55761950054557    1.74717601496634   -0.68719609153091
O          -2.35970220763908    1.03204654674994   -0.54889377637812
H          -2.35628725958998    0.56338794635078    0.30636592540075
H          -1.67849269323661    1.72047160962882   -0.47146543156570
O           0.34949774642637    1.00849579497905    1.96466919482167
H           1.25580073917597    0.74479250359156    1.71856415053411
H           0.14151146387530    1.74405328232185    1.36789014648935
H          -0.93840326480861    0.01180761797569    1.83075150638634
O          -0.90190954923467   -2.55199926970103    0.18170351245338
H           0.04926568587448   -2.37593294403671    0.33146788704489
H          -1.35225268099344   -1.98230551365292    0.83144377294649
H          -0.97435880164311   -1.63793933782773   -1.07921220115410
N          -0.90682538405014   -0.81061413969406   -1.76092549522294
H          -1.59930359480650   -0.07593009995447   -1.43188577549295
H          -1.06512765546631   -1.08678552024143   -2.72260149770419
H           0.05344200514976   -0.39619051185439   -1.63203859597295
