    26
        -50.47001093  Gyration_radius:  2.46318317114 Dipole_moment: 2.614
 S           0.64279591422213    0.90424077129148   -1.91894483735094
O           1.92798354665125    0.29227249036714   -2.14901305364007
O          -0.48143064501884    0.01197156663474   -2.07677909551530
O           0.56497395533075    1.63026376696946   -0.64313636297572
O           0.50012723071853    2.04670690001677   -3.02047747244560
H           0.96128623630070    1.65710620508841   -3.75563087181219
O          -0.64185129686839   -2.28614359119355    0.85264166553853
H          -0.57895578177576   -3.23454532637044    0.97145305761896
O           1.98204049095757    0.69860513874436    1.36583825288175
H           2.77999385153541    1.21475566268247    1.48608564896742
H           1.50430577148665    1.10063007026100    0.60146691640041
O          -0.32899276887600   -0.18878578625270    2.60583048772692
H          -0.45684308231122   -1.04608977197348    2.15886138019558
H           0.57346679413246    0.09103825105137    2.37948601586820
O          -2.49127930841522   -0.88330255197830   -0.61076609853897
H          -1.88127140937811   -0.65072024568317   -1.34009863662998
H          -2.00423270821669   -1.55637705569179   -0.10156341266852
H          -2.14392745361175    0.39043433245516    0.21843037193966
O           1.61554037303607   -1.52714152282163   -0.23761280297289
H           0.17078523729690   -2.02133975873140    0.34401451649134
H           1.71156636150421   -1.01397898527480   -1.06157630545908
H           1.95995977882791   -0.94067914243693    0.45369635042524
N          -1.62848058304286    1.16858782778938    0.74998218860033
H          -1.20787429011984    0.72846472050335    1.61998346458072
H          -2.23014849641383    1.95407930458629    0.96710740682639
H          -0.81953770791961    1.45994673967565    0.14072122582349
