    26
        -50.47229268  Gyration_radius:  2.48025889045 Dipole_moment: 1.993
 S          -0.63663342383062    0.40793891054007    2.15022585994400
O           0.18440467489089   -0.66227674890827    2.68217311052341
O           0.10636793887692    1.24705617645791    1.21464821407316
O          -1.89445120982466   -0.03887103730372    1.58776343751015
O          -1.00432872908577    1.32733982295448    3.38749815927030
H          -0.19083443509445    1.31271959205174    3.88042656005254
O           1.50938402952228    0.44587526755429   -2.23097846175677
H           2.25425842341975    0.59206550271792   -2.81426989829242
O          -0.25635311725777   -1.61429568110469   -1.76608542909067
H           0.09438752832748   -1.92483202510641   -0.90987277628116
H           0.40272331779214   -0.97924031036598   -2.10010177330386
O           0.76524619357414   -2.22496903980213    0.70089450666898
H           0.76178701002493   -3.12771089109107    1.02289357736152
H           0.50145007774933   -1.66072979592933    1.47225068388204
O           2.28590558417310    0.08202657930705    0.22967754452406
H           2.08222892345649   -0.84562998968903    0.41176955917609
H           1.88695591529502    0.33419524825261   -1.31119461924961
H           1.57772878047192    0.58324414178188    0.68549165670091
O          -0.41056696542783    2.17623992570216   -1.25795405550855
H          -1.54180942833549    1.05697251736972   -1.22572851724502
H          -0.17878292704007    2.06959413698092   -0.31509758048356
H           0.30564308115806    1.72747978642786   -1.74245672474288
N          -2.06156574508236    0.15221081274160   -1.01192258605755
H          -2.99579841596125    0.13831772725175   -1.40363124567500
H          -2.08751963427240    0.06850488553215    0.04334929407619
H          -1.45982744351681   -0.64322550802554   -1.37976853694553
