    26
        -50.47229263  Gyration_radius:  2.48026175182 Dipole_moment: 1.992
 S          -0.22846811197623    1.68869978255219   -1.51379062070702
O           0.02034058209338    1.74228414800588   -0.07618689542827
O           0.95754045444709    1.29850084696194   -2.25101803397827
O          -1.40218571247948    0.89947781740965   -1.82625018805004
O          -0.55456470108908    3.17054955233176   -1.97111036821867
H           0.31867403936816    3.54088120071174   -2.04411707084967
O           0.78497411355761   -1.04865983121203    2.39563109567146
H           1.30863748413776   -1.27732381431937    3.16369625650382
O          -0.17975845009370   -2.39214638610768    0.19497060836058
H           0.18225840544114   -2.09705863267052    1.05000552000535
H           0.42592623078185   -2.03226275987135   -0.48043508607291
O           1.49580550449385   -1.14261635684422   -1.57551057703090
H           1.26342005343689   -0.22764675597659   -1.87842797862252
H           1.81824292819727   -1.60212448899283   -2.35236876955702
O           2.16175467026374    0.36338144208622    0.69250867767021
H           1.46188324936494    0.99299881777131    0.41995860991627
H           1.37407670041708   -0.49657672445934    1.80467407098499
H           2.27293043264905   -0.22071934519636   -0.07017926424945
O          -1.27573870075038    0.76052576901560    2.06884200669217
H          -0.81888055114043    1.32183545843632    1.41289839088932
H          -2.00955236048479   -0.12677208705376    0.96993531782033
H          -0.58932131319803    0.15171410145484    2.39638130728909
N          -2.19259442497833   -0.69349569897820    0.08687261946510
H          -3.14821541619631   -1.02484643450386    0.02833137341767
H          -1.48978823626001   -1.49102978018107    0.08121770995902
H          -1.95739678632425   -0.05756972272993   -0.72652867410954
