    26
        -50.47229271  Gyration_radius:  2.48025226913 Dipole_moment: 1.994
 S          -1.49182832634865   -0.18495056923317    1.71321190038999
O          -0.53126017926783   -0.82766512872436    2.58885411442111
O          -0.93385237491117    1.00469053923064    1.07701336526979
O          -2.09581826076469   -1.07760854379875    0.74548723979228
O          -2.66700499702285    0.31405666547240    2.65205031012104
H          -2.18424752932263    0.60487166124212    3.41838582950012
O           1.83443642935353    1.34293175254655   -1.51255037828337
H           2.58343792059461    1.87752192500137   -1.77654492504672
O           1.38415541639848   -1.71106892094787    1.08696173171783
H           0.62835147861823   -1.42315760018428    1.66037353427282
H           1.67833087148511   -2.55110366942076    1.44266117410668
O           1.18454055349907   -1.33004280607489   -1.61822483895672
H           1.54771750129379   -0.43145134469082   -1.71765451074482
H           1.29618400407507   -1.55113772214562   -0.67419144706431
O          -0.87124107382434    1.89457038221577   -1.46248685393677
H          -1.28245951293478    0.39178785930570   -1.78852919403868
H          -0.98120507111975    1.79011452134511   -0.49758216769423
H           0.09212111350934    1.87771823222289   -1.60637781985955
O           1.72567160511733    1.07107693713377    1.07681507040705
H           1.85337676919416    1.30190573580083   -0.51309738286235
H           0.75517193877046    1.14168690699330    1.19379548190608
H           1.92097897286839    0.13637190549635    1.22962454250726
N          -1.36459299375381   -0.66843663435927   -1.72853344284819
H          -1.73433302182517   -0.88198348422973   -0.75954693439577
H          -0.37702677737263   -1.05776998283729   -1.78545665739069
H          -1.96960445146941   -1.05292859303023   -2.44445777158307
