    26
        -50.47229269  Gyration_radius:  2.48022852143 Dipole_moment: 1.994
 S          -0.92657103032071    1.93450707160563   -0.77052975802236
O          -0.40370760437998    1.60451335844427    0.55198888799565
O           0.13762247354466    2.15798703214929   -1.72969119294708
O          -1.92198815046656    0.97742281182003   -1.20790694587983
O          -1.67734572341735    3.32263650002081   -0.62591914102162
H          -0.94980546070426    3.93419930662794   -0.66474192594992
O           1.49038292601421   -1.47044417515111    1.75285542332429
H           2.20187595797668   -1.76628983866108    2.32095115976029
O           0.42809317247827   -2.27522361714112   -0.65574434119226
H           0.88147198383190   -2.17123751526979    0.20035372736119
H           0.77860666013052   -1.56190859454610   -1.22226723441921
O           1.35858478662969   -0.10402257920741   -2.04189312336452
H           1.60730330957125   -0.18345742150811   -2.96416177093741
H           0.86179702087579    0.75072804850162   -1.96740197718328
O           2.11243410430575    0.74111832851242    0.52294657869065
H           1.79782918656449   -0.61487972751128    1.33516761106354
H           2.19621521024973    0.48542345551499   -0.40585329404021
H           1.24361557108863    1.19149604808255    0.57661846444266
O          -0.95765108692657   -0.33269829749472    2.33674103333399
H          -0.79170577821467    0.51331912719171    1.87766705838381
H          -1.67694953285338   -1.00370834718069    1.08531635746552
H          -0.09522882101944   -0.78572263104807    2.34286641412720
N          -1.90262103106807   -1.29208497448403    0.08512773748281
H          -1.05002461393194   -1.80646154385966   -0.28716964383030
H          -1.99722620994844   -0.39381182200844   -0.46748209950755
H          -2.74500735861990   -1.85139999074910    0.02216198081653
