    26
        -50.47229257  Gyration_radius:  2.4802357659 Dipole_moment: 1.993
 S          -0.58502012877705    2.17527263156804   -0.34769296846862
O           0.27084701257522    1.58442817643397    0.67698605700832
O           0.07873665060370    2.23317865800764   -1.63547482596092
O          -1.88935376467903    1.54645794041818   -0.38534878751385
O          -0.82953134807250    3.68104350884954    0.08148325618578
H          -0.02752131071682    4.09452187649383   -0.21965905372289
O           1.56772716363591   -1.97421576618473    1.04868943403393
H           2.32852599664560   -2.49588401195518    1.30466171858766
O          -0.46695499763068   -2.22509406197305   -0.78859314147109
H           0.27498213714712   -2.32994368201976   -0.16588607324475
H          -0.16669371937388   -1.56248557094325   -1.43930426196215
O           0.44778887207197   -0.21167429118458   -2.40438527195411
H           0.26082780370189    0.72558622826144   -2.14065990026904
H           0.31678212689732   -0.24834877914617   -3.35318625840391
O           2.27440453147864    0.13652063998886   -0.30636034021541
H           1.94474247833368   -0.02924522192593   -1.20021010998521
H           1.63938856297638    0.77833622051594    0.07488722839456
H           1.92167431545876   -1.18027303333180    0.55338147121833
O          -0.10107986334885   -0.33958095531297    2.52222884645755
H           0.54908475297914   -0.98898583385007    2.19880001541252
H           0.10904895788985    0.48434716389558    2.04156385886829
H          -1.37566846498429   -0.67204595211034    1.62863598413792
N          -2.01584783328689   -0.78531586308368    0.78496108142385
H          -2.05829087149268    0.16330439619943    0.31641647975239
H          -2.94121183201086   -1.10982601641935    1.03958691768254
H          -1.52738723647674   -1.45007842109381    0.11447865545667
