    26
        -50.47229271  Gyration_radius:  2.48009179228 Dipole_moment: 1.991
 S           1.88325343025892   -1.27372562072134    0.15503900262606
O           1.08678985827543   -0.91040736568658   -1.01334592000168
O           2.69669831986451   -0.16621678040268    0.61759212648762
O           1.07165808677696   -1.88074656168482    1.18995468779198
O           2.90263104504565   -2.38938713160067   -0.32241571633354
H           3.58256005116210   -1.86165448729461   -0.72754629816050
O          -1.82371750270671    1.51705339707406   -1.35309217526288
H          -2.21714158015766    2.17527008436231   -1.92619887663057
O           1.06385235189881    1.65702929567058    1.46298529988534
H           1.45282514179019    2.06903533645273    2.23608193110322
H           1.69428983531875    0.94194430729489    1.19075099299440
O          -1.50970051876153   -1.20983277951574   -1.65627478022910
H          -1.76175959421259   -0.27053531408919   -1.71384964101829
H          -0.53317757217549   -1.20512633962024   -1.63596445104829
O           0.77459775996416    1.71308204491545   -1.32475287965989
H           0.98377950695985    2.01811235099532   -0.43127868409863
H           0.99617929227722    0.75842629973566   -1.31678126457661
H          -0.83323317206370    1.64592979524999   -1.41142490225000
O          -1.62336913332907    1.13548857345134    1.36597718005097
H          -1.63322483402187   -0.45479945313362    1.25557983769201
H          -0.68266607604278    1.36782599651509    1.48296347811608
H          -1.84111103157944    1.39259806971881    0.45182717386261
N          -1.49622690944003   -1.46510437482857    0.95476629673528
H          -2.10187578309997   -2.10078869458605    1.46020598232424
H          -0.47615179085075   -1.70529139317878    1.10703154270693
H          -1.65575918115994   -1.49817926507142   -0.09782996307143
