    26
        -50.47229287  Gyration_radius:  2.48039698097 Dipole_moment: 1.994
 S          -1.29556407484835    1.72933605231701   -0.72579710080727
O          -1.00587094451977    1.27468731692617    0.63096519720416
O          -0.17100989729478    2.43479259689427   -1.30902097505524
O          -1.81053179933197    0.65682405631155   -1.55215288165467
O          -2.46042109742561    2.79714200804533   -0.60546730600137
H          -1.97497772175167    3.57737377904946   -0.35952677518171
O           1.44303883154851   -1.35576215925327    1.88085616472649
H           2.06271860296275   -1.56365354088318    2.58031404817954
O          -1.30442762315488   -1.07813030249717    1.90362112159962
H          -1.31687343189794   -0.14028377907882    1.63102756142705
H          -0.36762918163347   -1.27088154627605    2.08906223636564
O           1.74714424833715    0.71500617709446   -1.56944063196624
H           0.99971609754561    1.36469255457717   -1.52180918942096
H           2.21217215843593    0.90953257060388   -2.38470726045173
O           1.26666542058672   -1.87438978309404   -0.81717432508828
H          -0.32690347061728   -1.91593020745807   -0.81786530772840
H           1.49069630475789   -0.98745757948595   -1.15740743638727
H           1.45717120431175   -1.84028455857794    0.13768269220478
O           1.59131487439583    1.15349822787375    1.19400412155424
H           1.95981912872502    1.13681777523377    0.30003223693378
H           0.63605083424818    1.32875085231612    1.06263528706186
H           1.54866673857824   -0.37941863133593    1.68934923155496
N          -1.35981719428575   -1.74597404384297   -0.63286400996240
H          -1.46991926727658   -1.63088558507203    0.42031632027193
H          -1.94249150844211   -2.48583445775329   -1.00641278018013
H          -1.60873722195521   -0.80956781262135   -1.06022027918991
