    26
        -50.47229276  Gyration_radius:  2.48006699784 Dipole_moment: 1.992
 S           1.70375457296656    1.02187088879306    1.11594694120542
O           1.62142994441183    0.11606327198081    2.24513396243768
O           1.70888169916226    0.30428148252985   -0.15542826377549
O           0.71043299978371    2.07601778493829    1.13303567881772
O           3.11306212682446    1.73670425875603    1.23685916677922
H           3.65955259526321    1.02290891584611    1.54795855663222
O          -1.02472589500541   -1.73298547056835   -1.84509442805528
H          -1.19233222384450   -2.52111157190178   -2.36208143469791
O          -0.69838614851516   -1.02745532599920    2.11490880238767
H           0.16833759556092   -0.55375400607395    2.19999319292815
H          -1.02925785726976   -1.13106700162676    3.00847270533771
O           0.33859096067288    0.59005554638470   -2.45429949614011
H          -0.13659052465744   -0.26043344419424   -2.45518607009815
H           1.02517550620278    0.49135617117858   -1.76660911236642
O           0.75351446118527   -2.17321497280754    0.00821437371612
H           1.24219525585654   -1.32562789935986   -0.04955409485234
H           0.25875453591050   -2.11189954292010    0.83678105811868
H          -0.32456785091033   -1.97796561358220   -1.17367114947049
O          -2.38529822631193   -0.31002029396161    0.07919775871985
H          -1.86239308027677   -0.57272086898776    0.86031314389046
H          -1.76867752526709    1.09191314220186   -0.36327185492453
H          -2.08091551090717   -0.88971422280983   -0.64224790094943
N          -1.13496530899019    1.87424848154777   -0.70439858544804
H          -1.65082357149762    2.71982496411755   -0.91714452190896
H          -0.60379263360758    1.49623292355900   -1.54672932258271
H          -0.41095587672189    2.04649238296237    0.04890090430935
