    26
        -50.47000578  Gyration_radius:  2.46329476063 Dipole_moment: 2.729
 S          -1.46462154074321   -1.45921859649423    0.79691782858977
O          -0.64364473535511   -2.33746235367936    1.59413210400963
O          -1.63911208439736   -0.13475928967534    1.34180810100767
O          -1.04150208237579   -1.39360011047436   -0.61072203307652
O          -2.89952452019639   -2.15015177370356    0.74406603722372
H          -2.86521281579878   -2.70265747813280    1.51760215145408
O           1.49171812616712    1.81964593679042    0.91834056637519
H           2.11704035191774    2.23082855742832    1.51623536447548
O           1.68964437446999    1.05706174649734   -1.71794884485521
H           1.79039975322890    1.44049158244923   -0.82696556254216
H           1.83651954829102    0.10277256550221   -1.60882233174848
O           1.52755932137092   -1.63670763904779   -1.10518142216055
H           0.55449870749472   -1.61609794772400   -0.93954548627549
H           1.72774058756575   -2.51720297483092   -1.42484848397445
O           1.47633031014526   -0.73305313520729    1.50982826068389
H           0.69040455592589   -1.26545988752915    1.73296445695247
H           1.79462132672695   -1.11055218782973    0.67518215003038
H           1.41115286081930    0.87466008048289    1.21734723313202
O          -1.18165308917917    2.37150814753374    0.63280288349528
H          -1.14250479781735    1.70504144087231   -0.77699534913617
H          -1.49541058737482    1.55727853661518    1.07552867301625
H          -0.22880532873334    2.39750977320307    0.83512588730633
N          -0.94903588564985    1.04979875790131   -1.60561572708448
H           0.08686969052240    1.12296958640392   -1.82735559347398
H          -1.53107300670679    1.25818136942016   -2.40808817161532
H          -1.11239902043303    0.06917530319894   -1.25579267177067
