    26
        -50.47229277  Gyration_radius:  2.48020673876 Dipole_moment: 1.992
 S          -1.02231187912037   -1.37935777793183   -1.49866373132047
O           0.00907163399256   -1.19541364961156   -2.50106954455692
O          -0.45610263320066   -1.66973683131699   -0.18473263858247
O          -1.98613909138798   -0.29951873139608   -1.44032027371132
O          -1.82760537934450   -2.67129629990605   -1.93920409856809
H          -1.12872651360013   -3.22303150433651   -2.27402394068853
O           1.58763621126976    0.51990187038473    2.16122731164843
H           2.32205237988296    0.51837210693692    2.77529861220422
O          -0.89198890458867   -0.68994772490062    2.28387053597284
H          -0.77063402924403   -1.25592611470056    1.49712621822574
H          -0.01184986113879   -0.30838546727784    2.45384664574874
O           1.31635274044726    0.94120461001821   -1.84409799705113
H           1.54677332747298    1.40759919500855   -2.64919583654656
H           0.78666949437030    0.15325256507562   -2.12937416289955
O           2.09268167155383   -0.95243841339061    0.07129678414469
H           2.16720128002152   -0.32055040606014   -0.65689527643441
H           1.85065165328295   -0.07749412401412    1.40296185425190
H           1.20717641943520   -1.35638225896083   -0.04357053289517
O           0.50785929376101    2.32024747108619    0.38009509752102
H           0.97487301454333    1.84231401960510    1.08908994449839
H           0.81575904971049    1.91375427768875   -0.45210452229277
H          -0.98035800352692    1.77980619454567    0.56454659993343
N          -1.84532325649739    1.17875792921154    0.70836542181343
H          -1.98873424953426    0.61357308378851   -0.17563309119819
H          -2.66494262128499    1.73298336946201    0.92616896598248
H          -1.61004173727186    0.47771261099257    1.47499165481709
