    26
        -50.46272417  Gyration_radius:  2.48190329579 Dipole_moment: 6.103
 S          -0.19268814790038    2.13713758057959   -0.93259688758162
O          -0.01798096805844    2.20702142035284    0.49727901576429
O           1.00552512284093    2.28599829595737   -1.71817910202426
O          -0.96649080636427    0.93277847912841   -1.29242535771287
O          -1.12578480496305    3.36097037405253   -1.34846394228904
H          -0.70028274047007    3.64354697211634   -2.15128890981201
O           1.59196260841667   -1.06382351256334    1.38797751582162
H           2.44544058385639   -1.33716012468711    1.72704582482561
O          -0.34889956578349   -2.62337146046412    0.40208278758981
H           0.40500132041625   -2.11721618154623    0.78677701839859
H          -0.18973403024266   -3.54879079153060    0.59012481881054
O           0.17366870355126   -1.38414410840515   -2.14351101446216
H          -0.10532273850707   -1.94756650501087   -1.40982845350556
H          -0.31073186446022   -0.54680451763902   -2.03641088868434
O           2.11539895512390    0.01470289455400   -0.88623358039953
H           1.79408518410290   -0.55989115903891    0.53727579335931
H           1.61833803715401   -0.56992387682107   -1.49560318539106
H           1.84638543455340    0.91746797392197   -1.14082823322724
O          -0.25544567155081    0.59237629621262    2.55072343170351
H          -0.10690477178620    1.37908825678396    1.98522604556358
H          -1.31431827607209    0.01898017060926    1.59585005184140
H           0.50291319755347    0.01360072179421    2.35207306604404
N          -1.86847615158681   -0.37002166149918    0.75286363282443
H          -1.56955873128635   -1.34467098881184    0.60018649045446
H          -1.55553943682201    0.20990816247675   -0.09629810768729
H          -2.87056042171614   -0.30019273052217    0.88618217977578
