    26
        -50.47229286  Gyration_radius:  2.48029614538 Dipole_moment: 1.994
 S           1.76721558488814   -1.36444266596876   -0.45800740412752
O           1.58288114456595   -1.26053788247870   -1.89246421916504
O           1.73087191257352   -0.05661128603576    0.18972232039922
O           0.87252827591123   -2.30563664127625    0.18389807161447
O           3.23268056857977   -1.93098320947407   -0.25055755868226
H           3.70623092112306   -1.48600613228680   -0.94528155943231
O          -1.14026001166724    2.40297733636400    0.62089697149331
H          -1.36879550857773    3.33259636666819    0.61693596106672
O          -0.82354420169008   -0.38608288019545   -2.27914045910097
H           0.07915281392283   -0.77113698538560   -2.13875887904152
H          -1.17780349441462   -0.82413925367738   -3.05461314396012
O           0.43244951015113    0.91636197719932    2.33716750926251
H          -0.11528177758890    1.58817612705051    1.89257837654939
H           1.09540700601166    0.65352722210619    1.66977872029337
O          -2.40322472708448    0.06164560747199   -0.08696508235403
H          -2.13816958095524    0.96451430195576    0.16574623734407
H          -1.91970573359365   -0.12818350844345   -0.91323733955303
H          -1.65822821329675   -0.80620202233072    1.02318359585184
O           0.55953464213176    1.83370900134255   -1.27039453324597
H          -0.47633052496121    2.27111322834198   -0.11595273217732
H           1.12117587699324    1.19798831194938   -0.77958033173867
H           0.05730279150634    1.28604830663149   -1.88921793983691
N          -0.95328655406955   -1.21932641688827    1.70323568136257
H          -0.22972107211020   -1.74051855774262    1.13199836409401
H          -1.39022658290642   -1.82839313200198    2.38482355423410
H          -0.44285308545021   -0.40045724290755    2.15420581883945
