    26
        -50.46272412  Gyration_radius:  2.48195264273 Dipole_moment: 6.102
 S          -0.62378612492149    2.12848526589259   -0.74446964783463
O          -0.51107481710543    2.09286973423264    0.69283156311993
O           0.53738833307739    2.60353822691939   -1.45233872418460
O          -1.10856428660871    0.82881890207539   -1.24938238944240
O          -1.78582364739175    3.16165240881497   -1.09540549046783
H          -1.41146222641345    3.59866969596407   -1.85316596992410
O           1.74286694831101   -0.83129047007091    1.36401591496203
H           2.62427142378712   -0.94764435299363    1.72132395107008
O           0.21568873569415   -2.66360828411201    0.14665450110970
H           0.56743673008138   -3.54757945964010    0.25564252190940
H           0.83032681087371   -2.04914386605776    0.61260451829361
O           0.53091188276125   -1.09698272085225   -2.24771154014449
H           0.35927470600539   -1.77616128995367   -1.58222387987154
H          -0.12579653278125   -0.39625265214506   -2.08965208086810
O           2.08943713624222    0.55036600150316   -0.77607046140996
H           1.74788169857988   -0.06339729985982   -1.45925927137794
H           1.63853733079029    1.39585572052483   -0.96082488734387
H           1.85711839806147   -0.21559933117159    0.57251825159254
O          -0.45209073234451    0.27025491609808    2.57910625220696
H          -1.33357470042794   -0.41801541511975    1.52407886528712
H           0.41894440475313   -0.11116706528962    2.36591104330576
H          -0.46138910224434    1.12280262203561    2.09582105036999
N          -1.76532961939624   -0.83083569465469    0.62309583959087
H          -1.25835301481668   -1.69979556337766    0.39859171046089
H          -1.56060756176203   -0.11672976489938   -0.15403784097775
H          -2.76223218280688   -0.98911027386492    0.71234619056955
