    26
        -50.47229330  Gyration_radius:  2.41207328967 Dipole_moment: 3.396
 S          -0.71891284557846    0.28498215478975    1.56176347441790
O          -1.10246291069779    1.15156677995055    0.45901726497498
O          -1.73394791125131   -0.71678183263539    1.83807494801735
O           0.60419358431167   -0.27907300266468    1.40213448149027
O          -0.63597010987564    1.21069770932024    2.85250302057736
H          -1.55229086536363    1.33764562607761    3.07538607950015
O           1.08588600589739   -0.02931233578838   -2.33207506703014
H           1.61129991488798    0.15308815167535   -3.11184377084179
O           2.19854572506986    1.83679341525049    1.69400747259003
H           1.79113003569225    2.33641015793785    2.40355278139948
H           1.72692295616083    0.98309896016133    1.66962746766404
O          -1.63063851277053   -0.04670357152926   -1.89813867541335
H          -1.59791713008903    0.55152820522794   -1.12698231225808
H          -0.72667417123936   -0.02306055355659   -2.26445540511411
O           1.08322044202922    2.07432754115650   -0.79324195737665
H           1.72004641532911    2.10704288237335   -0.05735247264328
H           1.16597353670521    0.78083152222020   -1.74989083615401
H           0.22879093668326    1.88330896125327   -0.36236457441669
O           1.16011326586974   -2.07149341938695   -0.51120538175852
H          -0.39586061277906   -2.31224448786205   -0.42892729831605
H           1.27245214497111   -1.44828788031488   -1.25407380949724
H           1.20513227087592   -1.50891263578746    0.28376580370677
N          -1.45146662793799   -2.14812168197486   -0.35612438142228
H          -1.64255471416273   -1.70594559645861    0.58070641988091
H          -1.98753772547436   -2.99900760509659   -0.48565879693124
H          -1.67747310726991   -1.40237744433146   -1.08820447505083
