    26
        -50.47229311  Gyration_radius:  2.41215590506 Dipole_moment: 3.386
 S           0.63582850678215    1.59365740190431   -0.30661808267039
O           0.16088941815175    2.52610130002282    0.70087770035029
O           1.52592854643871    0.59397897758396    0.26111667662301
O          -0.43346961493623    1.01630906578279   -1.09217360271924
O           1.50852243177300    2.44173372865324   -1.33076884182965
H           2.02097396730113    2.99845501796514   -0.75375455154271
O          -0.59721108997394   -2.48250120175280    0.31348992597675
H          -0.69181824140827   -3.43121338478924    0.22206880111421
O           0.53948806588565   -0.91328542678442    2.26753782841684
H           0.16670893841852   -1.63205063994679    1.72342132504994
H           1.10764234422114   -0.41018530333702    1.65292153107599
O           0.84090849471918    0.04110502299534   -3.21994556229685
H           1.49626030126636    0.71021892690731   -3.42478480767323
H           0.26083888964719    0.43965631619825   -2.54440017534867
O           1.39415144063964   -1.67617619008244   -1.16256143469692
H           0.13549160315869   -2.21663601030356   -0.31426267086469
H           1.19750769801232   -1.32843800222421   -2.05050944549317
H           1.59685846415158   -0.88154830689760   -0.63375282012850
O          -2.38888968508163   -0.43329332612628    0.02916886885596
H          -1.90733466815185   -1.27928772288783    0.10211705592991
H          -1.95685483061296    0.37856342347933    1.30968246292548
H          -1.85654102002673    0.09375525361337   -0.59477930276763
N          -1.36539053680834    0.86303955354004    2.05939132848441
H          -0.63140298376363    0.14436671684788    2.35541446004883
H          -1.92185841510350    1.19751913140965    2.83825918878584
H          -0.83722802470076    1.64615570823963    1.59284414439311
