    26
        -50.47229329  Gyration_radius:  2.41208206853 Dipole_moment: 3.395
 S           1.06097942167596    0.66863746385005    1.21025198879110
O           1.19738585006390    1.13711390705712   -0.15937560795470
O           0.34201828344753    1.62250952655816    2.03696247079802
O           0.52435557519502   -0.67253954251335    1.29701828304898
O           2.53423828498673    0.57870969358999    1.80283770325116
H           2.74319956719599    1.49051853708436    1.97721850737327
O          -1.24930878663532   -0.99186390349217   -2.01892313880175
H          -1.50133292096532   -1.47602793934703   -2.80596070078829
O           2.49925323062101   -2.17409808225115    0.32327926185608
H           3.29262721297315   -1.77262956370766    0.68164438415099
H           1.75559506264945   -1.74313927741618    0.78486828947084
O          -1.08383043412219    1.70123489807286   -1.48161323712919
H          -1.24222930047147    0.81489138322210   -1.85734222292212
H          -0.16584471168074    1.66615068044559   -1.15034324805279
O           1.35043781745392   -0.95007983562003   -1.83765919476046
H          -0.25212090991149   -1.05640629742422   -1.96284428327649
H           1.40263735075016   -0.12374301681846   -1.32129050950102
H           1.78326931249952   -1.61360969657951   -1.27151977056802
O          -2.00176434983716   -1.23652592751452    0.60116596009517
H          -2.19111117342890    0.30162188044168    0.89132312984828
H          -1.86942679318344   -1.28898239767431   -0.36454857570469
H          -1.10101295248981   -1.28659156548770    0.97072186474810
N          -2.03372246366943    1.36009276783803    0.92828982314936
H          -1.16336197618231    1.53438140145895    1.49567773346560
H          -2.83238602382258    1.85960487796006    1.30349745590609
H          -1.79854417310924    1.65077002825614   -0.07333638649590
