    26
        -50.47229254  Gyration_radius:  2.41194158327 Dipole_moment: 3.371
 S           0.24198993751835   -1.02147170801518   -1.39186648668060
O           1.02435681686394   -0.32382479198489   -2.39741771671665
O           1.02260324521871   -1.29613068659761   -0.19629321054317
O          -1.01930600902889   -0.37249524856244   -1.10575853047254
O          -0.13710498032477   -2.43514258418900   -2.01411686779049
H           0.68249441208800   -2.71392694501313   -2.40906252553315
O          -0.33088817230383    1.17516679629563    2.26301094651052
H          -0.57568335831297    1.40706496678931    3.15946905679857
O          -2.42080378183475   -2.28043195762161    0.11847627636476
H          -2.20516722536014   -3.07658299671568   -0.37017442932999
H          -2.04621198894238   -1.54411737189526   -0.40055719172820
O           2.11391984021774    0.83201428892035    1.04974247545364
H           1.90967155917338   -0.05382380764921    0.69314365607341
H           1.36859735117338    1.03350038964348    1.64626158539730
O          -1.14913581580079    2.13453964929341   -0.16654766412510
H          -0.97140545870168    1.93730430075926    0.77278082190125
H           0.27894968165961    2.21848308892773   -0.82924595488720
H          -1.37629816912398    1.26984238930454   -0.55519749356675
O          -0.58673544708860   -1.39921167931781    1.94790127371618
H           0.07575252621551   -1.48109382579656    1.23618218436276
H          -0.50320261623587    0.19307865734802    2.17530045957496
H          -1.40959700048513   -1.73321997819139    1.54843951307111
N           1.27458845828889    1.97934076594897   -1.14253402062834
H           1.21747168600282    1.14120793119685   -1.77818548563572
H           1.78211721210660    1.64947023624175   -0.26137992852337
H           1.73902730701859    2.76046012087263   -1.59237073306976
