    26
        -50.47417170  Gyration_radius:  2.42097690316 Dipole_moment: 1.956
 S          -0.57421351876129    1.70871341731871    0.87250965358385
O           0.77077507498186    1.87612395137725    0.35535928769456
O          -1.57109878643268    1.70414310911176   -0.18723945282698
O          -0.68157952696932    0.56784011008880    1.76659038399476
O          -0.90815804453187    2.97949322655046    1.75595900899124
H          -1.28975294296480    3.56502109034999    1.11129971135934
O           0.83333253382843   -1.56539583039543    1.86581388522561
H           0.83537156255663   -1.89304265770629    2.76625743482051
O           0.02174355203238    1.45599908877291   -2.24068524635393
H           0.73642310842917    1.93034606355240   -1.79962844381430
H          -0.71878627917151    1.53977784665622   -1.59940883150442
O          -0.58349270910839   -2.45132273426023   -0.35011525635788
H          -0.06914653714853   -2.38816957179999    0.47260933602910
H          -1.41558571279850   -1.95972747549546   -0.15913327948325
O           2.47338784102058   -0.16059405135132    0.16452894700570
H           1.72558460832484   -0.71671289253840   -1.11738327132139
H           1.97791295400577    0.67672970047659    0.29251786549349
H           2.15483871850139   -0.74645175730842    0.87069452907631
O          -2.53093806621739   -0.78928313532814    0.39643199352406
H          -2.71465228281548   -0.07126134885795   -0.21841332075918
H           0.27755714173176   -0.74945720271203    1.87385642955471
H          -1.97644729025873   -0.36321805331088    1.07524848121843
N           0.99363859709675   -0.98665115447067   -1.84549799961965
H           1.41159017082902   -1.45494722536403   -2.64120851315132
H           0.52716733101099   -0.08407815348387   -2.13511884263126
H           0.29452849309694   -1.62387434983627   -1.34584449003471
