    26
        -50.47417026  Gyration_radius:  2.42083300837 Dipole_moment: 2.000
 S           1.71962600470609   -0.64256254781749   -0.79815892474270
O           2.26195780190704   -0.20949033317215    0.48047770589419
O           0.82210826851165   -1.77311412034470   -0.65340714165543
O           1.12488189973285    0.43842673509613   -1.56597535236048
O           2.96814383543491   -1.12920934496535   -1.64124442537281
H           3.54076658158166   -1.46352130601325   -0.95983046388519
O          -1.41350124005049    0.97397695780228   -1.91899550501315
H          -1.51659032456346    1.40245463753910   -2.76985243511020
O          -1.35010870024604    2.06058885827811    0.63512397255535
H          -0.39588841957048    2.30569938782938    0.63221963854394
H          -1.55129786682542    1.85538772404657   -0.29366435123101
O           0.68256926525362   -1.54760535647896    2.07058191229484
H           0.57568657356977   -2.26669673592183    1.43678300083763
H           1.35054353304177   -0.97348220823796    1.63336117563903
O          -1.82154946457690   -1.49361354978669   -0.77939250265481
H          -1.90709619274601   -0.70797339180366   -1.34419817893882
H          -0.87096780110457   -1.73285187237897   -0.82707738949397
H          -1.86838920728490   -0.88191763843297    0.68126830745135
O           1.28200760565727    2.33686484272247    0.30804968288408
H           1.82403517940071    1.81002469119025    0.90477898392559
H           1.28657419144497    1.81449925839660   -0.51456974951863
H          -0.45249980103527    0.76415479214372   -1.83433718546757
N          -1.64755274908190   -0.36307782532940    1.58745969504756
H          -1.53028024503803    0.66657088700864    1.32234863180064
H          -0.73170414361248   -0.76119657759996    1.93214795169723
H          -2.38147459465709   -0.48233595374391    2.27610294693639
