    26
        -50.47417166  Gyration_radius:  2.42097842223 Dipole_moment: 1.967
 S           0.95077513451403    1.49912446777926    0.92591760860210
O           1.81339480016872    0.96724840183351   -0.11191663518029
O          -0.14122331691291    2.28878351434755    0.37753882513721
O           0.50713337925645    0.47121139531775    1.85281213044341
O           1.80889351589286    2.51286416920295    1.78783198851229
H           1.65960125875526    3.33000865574457    1.32523827519393
O           0.31736966422018   -2.10781847709206    1.44316322140098
H           0.45263008403429   -2.55722446347631    2.27853494712963
O          -2.02950526956112   -1.53158874727027    0.07576546163775
H          -1.32911691918374   -1.94966318084593    0.60478619109382
H          -2.24802538029415   -0.70495981267303    0.56510714198247
O           0.08386355179511    1.60923878897312   -2.13289197661759
H          -0.15176682141709    1.96495212216684   -1.24699645684547
H           1.03767569124268    1.48442881783136   -2.06298017082361
O          -2.12150996945937    0.74525697878347    1.46133608486198
H          -2.03799352685369    1.54727136917720    0.93492846511362
H           0.42311821981038   -1.14446940778918    1.63166511544458
H          -1.22424341991236    0.62180330554446    1.82111680623800
O           1.70664858421230   -1.58202449658318   -0.86883823013758
H           1.91310370478089   -0.66159960519675   -0.59827663283962
H           1.38219817454548   -2.01018504696966   -0.05950655774699
H           0.37476919636292   -1.32403682659540   -1.68689723542080
N          -0.57097072369423   -0.96500961441945   -2.02720912038463
H          -0.85062455523990   -1.40916242898734   -2.89418931616714
H          -0.45656315626724    0.07787485802539   -2.15170751101068
H          -1.26963188093179   -1.17232471692155   -1.24433241958802
