    26
        -50.46983304  Gyration_radius:  2.43240500535 Dipole_moment: 4.333
 S          -0.17570813066269    1.66059096823650   -1.20200317837894
O           1.06302682202768    0.99268245985093   -1.50980040875794
O          -1.35752861254538    1.06298787031949   -1.78601433955535
O          -0.34126183962323    1.85023308865392    0.24859298880850
O          -0.07601536175878    3.11744806189843   -1.81568902777299
H          -0.99214559312428    3.34440708311445   -1.93671176221866
O          -0.12233128416399   -2.08368392784346   -0.14941043880731
H          -0.16726745796822   -2.03022207012006   -1.12649088730062
O          -0.24528554428776   -1.20602659147341   -2.69136833234065
H           0.63571966080984   -0.85929209180456   -2.85654788405228
H          -0.77462723819803   -0.41830997851692   -2.46607615461869
O          -0.60410154826787   -1.29813168378559    2.73649325854871
H          -1.35709503593246   -0.93413589022767    2.24540649308333
H          -0.33635526682923   -2.08213231279983    2.24483443723854
O           2.23752935609832   -0.84469084954035    0.02910349712008
H           2.02360667536136   -0.17862606451694   -0.65385744847176
H           1.78920308263184   -0.04815685645396    1.24650479348109
H           1.49394658274256   -1.48942720541487   -0.03106928146725
O          -1.98469269692924   -0.17582672666644    0.62406761525388
H          -1.44933464290745    0.63941008331332    0.51761641707893
H          -2.56970321201116   -0.17547911249101   -0.13843271545653
H          -0.81590751963046   -1.46641680345963    0.14368132352614
N           1.19681705715484    0.53105789133012    1.94737210161387
H           0.53669274876553   -0.13317801377422    2.42495078009651
H           0.62875620280215    1.17972477511625    1.34387819144425
H           1.76406280644939    1.04519388706974    2.61096997191482
