    26
        -50.46999264  Gyration_radius:  2.46217213452 Dipole_moment: 3.145
 S           1.86031296515770    0.90783047202027    0.78537759491812
O           1.39161660967829   -0.44454291189538    1.14189373963568
O           2.73309926752637    0.90211115226722   -0.36346931845237
O           0.75263924672128    1.82576786267587    0.71963807880714
O           2.78090548581926    1.35396605615744    2.00677134627034
H           3.62467623799191    1.43734551713965    1.57539301846271
O          -1.81216389150214    0.63978302656933   -1.65016420360236
H          -2.18352832314082    0.97311202038115   -2.46782294121027
O          -1.75094524845936   -1.87807528527995   -0.54246241408463
H          -0.84639560082521   -2.14528790111502   -0.77543189221424
H          -1.92433895572223   -1.06676061782909   -1.05504884625214
O           0.98922987154900   -2.10688485315335   -0.84898705297469
H           1.71523327916762   -2.72789403396535   -0.91755113277913
H           1.20077291922106   -1.51461868571499   -0.08701441968406
O           0.76041009959429    0.36132095037580   -2.07205634220170
H           0.85492528642654   -0.59542696066823   -1.94303469200119
H          -0.82636132478222    0.64047058685382   -1.77955142467045
H           1.47458420857489    0.74986030641960   -1.53476659198267
O          -1.89131317329171    1.80830194774210    0.83218003409038
H          -1.58164529021173    0.41508592789094    1.46730153020123
H          -0.95286300018629    2.08199128370631    0.83608652242947
H          -2.05384484343471    1.54029620007712   -0.09056148962194
N          -1.19071696977490   -0.56203498264765    1.67838510093771
H          -0.14217715451156   -0.49378678057431    1.59091430798621
H          -1.51850528871514   -1.20476789938342    0.89937704735484
H          -1.46360641283476   -0.89716241802734    2.59460445062002
