    26
        -50.46983305  Gyration_radius:  2.43231250456 Dipole_moment: 4.335
 S          -0.82536877038967    0.76582833281034   -1.72182636821789
O          -1.08746829252025    1.67535319914442   -0.63578372341814
O           0.50838187896901    0.84174746553104   -2.27870091848408
O          -1.16934861674260   -0.61939132800863   -1.36111227500044
O          -1.81116950161923    1.15973642841713   -2.89733076170440
H          -1.34967845073249    0.83112500174242   -3.66169630510461
O           1.62034231594571    0.35771196317192    1.27458913791942
H           1.82287199877850    1.19753549671224    0.81277217362015
O           1.61678401536349    2.44115544614286   -0.43002614869902
H           0.82414571239142    2.92995222397026   -0.19232616201509
H           1.34514546151871    1.90170673492283   -1.19598875788787
O           0.74151714971163   -2.51985188795623    1.62449508800297
H           1.07826844708914   -2.46646274016946    0.71655547014570
H           1.23974807997078   -1.85986619787651    2.11871748615995
O          -0.86096725804317    1.07582981207429    1.95511725276254
H          -1.05460348756269    1.49794246377646    1.09479205132252
H          -1.40794979505987   -0.30869473665392    1.63664872020484
H           0.10580330629892    0.88695148100915    1.91127258567602
O           1.29201204622458   -1.40737541830490   -0.84295375435240
H           1.56450759521139   -0.29141325845954    0.55107603065879
H           0.37446159309550   -1.18581120912874   -1.11034640396591
H           1.84049837463134   -0.98922670395374   -1.51224923207488
N          -1.59092298473121   -1.26968628996086    1.16693073172735
H          -2.47860412180254   -1.67674565976835    1.43671353276075
H          -0.78140385482891   -1.89582630834422    1.40698551887321
H          -1.55700283116621   -1.07222428081916    0.13367502108470
