    26
        -50.46983298  Gyration_radius:  2.43225244881 Dipole_moment: 4.330
 S          -1.82286140776825   -0.95337007544650    0.00946567341775
O          -2.03744711605314    0.46224786577930    0.16947175006789
O          -1.55747691182290   -1.38512839842785   -1.34628296446712
O          -0.79112482530940   -1.45130458305693    0.93406867185369
O          -3.16712060215568   -1.67195652306586    0.44011322548886
H          -3.11684268561700   -2.49179419469817   -0.04024545184879
O           1.14207468154958    1.22167323208201   -1.25685499957175
H           0.38791865414859    1.32531480067121   -1.87335165392194
O          -1.25017068390069    1.03005778153498   -2.47633639304249
H          -1.38102174744652    0.09753684144099   -2.22189992299977
H          -1.84205569333727    1.51824901226786   -1.89752813032943
O           3.00245086669724   -0.13509416986953    0.70943842096550
H           3.00805912487859    0.64095557536025    0.13862419491059
H           2.64725941071529   -0.85213771837327    0.16142482824849
O          -0.15781161616492    2.23139324858287    0.84758253906899
H           0.42891498661051    1.18204577135588    1.78199223081420
H           0.39748214273027    2.07172806123968    0.04869017189972
H          -0.99726148774136    1.77407021845728    0.64249787299841
O           1.17085428937397   -1.52070315744276   -0.82478099843212
H           0.45313950028130   -1.59717072684601   -0.16031397269002
H           0.77197147530439   -1.83549251145640   -1.64052253965537
H           1.21049885268505    0.25726267279005   -1.14208861345151
N           0.79685872534016    0.24752805036608    2.19268525517030
H           0.82619392304785    0.24751689543828    3.20540624140546
H           1.74356729485850    0.07041686467798    1.77126513552823
H           0.13395085908649   -0.48384484335824    1.82747942854827
