    26
        -50.46983299  Gyration_radius:  2.43244765854 Dipole_moment: 4.327
 S           1.48531644084808    1.41555622303508    0.15145687301005
O           1.10856997195777    1.28236873470456   -1.23267322190384
O           0.58709199760919    2.21326467664789    0.95877781773488
O           1.73026171726600    0.10359112320266    0.77304612682383
O           2.87858218264673    2.16864310853993    0.17718861627868
H           2.87227548908158    2.56592589666543    1.04175523662653
O          -2.05940765825939   -0.10323590302180   -0.35891677953829
H          -2.08529192396336    0.84740088442597   -0.59387257064156
O          -1.41259448944237    2.47012508051403   -0.81306883071685
H          -0.75828718051174    2.50482538209127   -0.09044598525244
H          -0.88011386790963    2.43439367126098   -1.61236332520507
O          -1.21045174201574   -2.61825457626882    1.10415884942878
H          -1.94199020706846   -2.32859351788926    0.54833009289366
H          -1.06917953813598   -1.89641826506851    1.73634280856738
O          -0.29027380089989   -0.74906665071562   -2.25322184025546
H           0.46120245911360   -1.68019404376557   -1.31203257836396
H          -1.09445910218027   -0.57612557390284   -1.70948552623814
H           0.25772982565682    0.04921064926206   -2.11813789980449
O          -0.59530337696437   -0.07940632363440    1.99975446697201
H           0.31387908406226   -0.01416032146794    1.63685971893890
H          -0.78563621941822    0.80617590580004    2.32091338419620
H          -1.60441583482930   -0.11194964355966    0.50179812013456
N           0.93187433628598   -2.10948860796757   -0.43352246537034
H           0.16574896907909   -2.47474567921033    0.18663608073338
H           1.38484220165952   -1.29301696514854    0.05226621306576
H           1.61003026632088   -2.82682527455196   -0.66154336211542
