    26
        -50.46999083  Gyration_radius:  2.4619696779 Dipole_moment: 3.190
 S          -0.36421331030605   -1.85900035113514   -1.14547126976213
O           0.32589813044825   -0.67738167674239   -1.69674927706347
O           0.55120493788223   -2.79636897279391   -0.54137395317729
O          -1.47635605959743   -1.45732443732199   -0.32393079606745
O          -0.95659146121093   -2.61414379442699   -2.41724892510887
H          -0.45552623683559   -3.42257314929453   -2.39620117112031
O          -0.39148537645995    0.81468327585289    2.36669197823675
H          -0.39165382614732    0.77872564393287    3.32385596340362
O           2.44048098886189    0.15789396406364   -0.38565722950779
H           3.24088816977082   -0.11045380856458   -0.83813357136486
H           1.68733363336961   -0.18541022654409   -0.92525708196001
O           1.03838297470891    2.33876225516484    0.57722735724082
H           0.59419045381446    1.94305489232936    1.35000000060582
H           1.71503261701193    1.69548004723988    0.30817430833305
O           1.04135258720354   -1.22607318269853    1.55594981078319
H           0.05788555401034   -0.01882630539094    2.06368781398340
H           0.75416088609951   -1.91466737161615    0.92914151501461
H           1.75744086381890   -0.76293938084904    1.09383649301298
O          -2.55671993253771    0.73953927173549    0.68157918617076
H          -1.66719693529975    1.35907557898065   -0.44377026048642
H          -2.40432934473243   -0.17621107307233    0.37564736365301
H          -1.95601689597527    0.83582506793046    1.44287534856669
N          -0.86023262317077    1.60636085999693   -1.10670601570147
H          -0.10500802841926    2.06833899746870   -0.52034617288559
H          -1.15977358799432    2.19024679199850   -1.87847343093126
H          -0.45914817835060    0.69338708376462   -1.44934799378357
