    26
        -50.46983304  Gyration_radius:  2.43237658643 Dipole_moment: 4.341
 S          -0.87218505888133    1.45678164992198   -1.16197796098333
O          -2.12112477135384    1.19749193752129   -0.47806728902511
O           0.15428396824805    2.06175108629438   -0.35220934587229
O          -0.38121300809671    0.24669391895295   -1.84182709249767
O          -1.21284168786741    2.48735903803090   -2.31557838900748
H          -2.10137347098485    2.23821366541305   -2.54728156329690
O           0.03974782550296   -0.61838372393941    1.99884784915093
H          -0.44801789029030    0.18429734811193    2.27703932347052
O           0.83918772689915   -2.96114247236812    0.25255400977328
H          -0.08779352074463   -2.78328253703935    0.02956720208012
H           0.93503710066856   -2.69001887163135    1.17200702831998
O          -1.31103375898640    1.70989350462288    2.02918694067044
H          -1.75968285715919    1.53958435438943    1.17997318944381
H          -0.64163068232835    2.36555605623890    1.81535583689090
O           2.08170883826271    0.72791621713021    0.92473295112994
H           1.46280476988387    0.22309581082072    1.50296459202681
H           2.15413483375719   -0.22019412918505   -0.26434737006258
H           1.51392003330738    1.41177995798536    0.51760309574469
O          -1.45679355718440   -1.48607355777295   -0.17229175572282
H          -2.32021751775069   -1.12642427029635    0.04860556675629
H          -1.11522094340066   -0.88351369093823   -0.86713701667600
H          -0.50588838958802   -0.97639159504999    1.27629123564043
N           1.88698359725540   -0.88033505162677   -1.08305380813054
H           1.58763693209996   -1.79638145349339   -0.66310745433390
H           2.63639979469079   -0.99745688037731   -1.75469519828920
H           1.04317168397908   -0.43081631167606   -1.52315457721336
