    26
        -50.46999223  Gyration_radius:  2.46209925774 Dipole_moment: 3.161
 S          -0.88689123816296    2.02071383895883   -0.17775825253354
O           0.09754136665776    2.74039732379216   -0.94883644007456
O          -1.39856492233209    0.83348510748145   -0.88804505617110
O          -0.49535998914268    1.67692948734690    1.16463083578822
O          -2.13707540438295    3.00324615222197   -0.07561630877939
H          -1.83405028230616    3.73538179635730   -0.60216409818480
O           1.99109972306392   -1.04488096761593    1.16641941076497
H           2.90086540387847   -1.12963527638997    1.45409987398860
O           0.31030154731955   -0.44319810190196   -2.41747494470433
H           0.15665295990704   -0.23172444496157   -3.33900223833642
H          -0.35988404160896    0.06564330607547   -1.89978960502679
O           0.46577677775411   -2.51396377259317   -0.58980026098004
H           1.13193995656584   -2.16118967650715    0.02895493386141
H           0.50944743077588   -1.94172205926614   -1.37375205190878
O           1.96428886720655    0.86486665619678   -0.62990448746933
H           1.40109061463607    1.65995882243051   -0.61288309825575
H           1.96788434198765   -0.24979678768955    0.56993069950830
H           1.65851862590138    0.36948395718903   -1.40576388886438
O          -0.20890888957880   -0.46017331249537    2.69936331627691
H          -0.30672473618834    0.45696826373261    2.37570806064553
H          -1.11669156730102   -1.05049850215563    1.57321169830078
H           0.66671973814982   -0.73330054534521    2.37004463584407
N          -1.55104023240431   -1.32125700966134    0.62976763151874
H          -0.85515165202952   -1.95282148083257    0.13535504934228
H          -1.61194165711814   -0.43639069002703    0.05954419181930
H          -2.45984275124691   -1.75652207436506    0.73376040361269
