    26
        -50.46983301  Gyration_radius:  2.43236621899 Dipole_moment: 4.332
 S          -1.47726210515038   -0.10210842612525   -1.42834556466545
O          -1.37201749841804    1.25807759276465   -0.96543883712753
O          -0.46799059274666   -0.50583657134531   -2.38397706669812
O          -1.55061268219610   -1.05103948868121   -0.30512349346646
O          -2.86479407321256   -0.22341426829815   -2.18269340219955
H          -2.70651572195503   -0.95332828204856   -2.77216801030121
O           1.95391845167074    0.72135091711338    0.21002280176032
H           1.90006176546476    1.17475458716082   -0.65661878258131
O           1.49359423643357   -1.43002183350766    2.29388048800875
H           1.45166872791008   -1.88943650891650    1.44071819719456
H           2.09284257582958   -0.68896008063393    2.15328136004470
O           1.13933950025301    1.63489519922212   -2.18772247960994
H           0.46348599030528    2.28219112924356   -1.96874531818995
H           0.63688685965293    0.82660792837982   -2.40143408140806
O          -0.12492340980818    2.02465096620110    1.26626838419219
H           0.76273548753421    1.70609913162937    0.97851029855523
H          -0.66459538640169    1.97617580066596    0.45245125685878
H          -0.64611072632326    0.76206017676266    1.93838023463069
O           0.97344977137367   -1.80539634441564   -0.39197924743799
H           0.00957636863901   -1.62294516440254   -0.37973983184121
H           1.19064979888823   -1.86491725363903   -1.32628414249409
H           1.67449851958691   -0.18908700012637    0.00764998920247
N          -0.92236932438708   -0.26763321572889    2.14093717875038
H          -1.30182815164693   -0.62658625115375    1.22722316593258
H          -1.60559829035528   -0.35259718949983    2.88419064385314
H          -0.03809008095387   -0.79355555061942    2.35675624902068
