    26
        -50.46983301  Gyration_radius:  2.43235488046 Dipole_moment: 4.332
 S           1.64583435074893   -0.45526890984570   -1.14731871937608
O           1.16793659894503    0.85197617623102   -1.51898780755357
O           2.43002347932515   -0.50012231127068    0.06836456585027
O           0.55136878679167   -1.43910673460146   -1.10672210021284
O           2.61189920695703   -0.93714497332004   -2.30642452613827
H           3.17242947694201   -1.55717689501056   -1.85175594371706
O          -0.52085906410277    1.24639519178851    1.59859121368638
H           0.34179321553303    1.70739199696226    1.54545541591374
O           1.97326657917514    2.00280708922811    0.92407282211936
H           2.26685238571706    1.09509088538320    0.72090789680365
H           1.86225742119443    2.41362451924432    0.06231984426494
O          -2.49804489143288   -1.04633936546445    1.48393638712978
H          -2.45621295477993   -0.15678711378527    1.85138228795762
H          -1.64796876878315   -1.45539891684856    1.70910495010631
O           0.23781731281055   -1.42271015592082    1.51019285679219
H           0.37848049561068   -1.52886318402296    0.54505213347153
H           1.12587189775489   -1.36979619266027    1.87380376745390
H          -0.27356330329855    0.30537795987213    1.63427422020997
O          -1.23679992267688    1.83442925195411   -0.90707825226734
H          -1.09332744465650    1.80267945568661    0.06788173508695
H          -0.34712925784411    1.67181366659583   -1.27854697068990
H          -1.81366908711346    0.44302535635003   -1.12796476477767
N          -1.96632631781011   -0.63128285283501   -1.11539726917270
H          -2.31851602217650   -0.88740166307748   -0.15861312041477
H          -1.00257729628712   -1.03866618154776   -1.22916687463128
H          -2.59083687660212   -0.94854610920466   -1.84736376791517
