    26
        -50.46272423  Gyration_radius:  2.48187952899 Dipole_moment: 6.102
 S          -0.72614327222135   -1.90710354935737    1.14447059896746
O           0.34465092790432   -2.19066317526095    2.06539967307544
O          -1.54418430803241   -0.76378561436799    1.46607926839588
O          -0.26839932997418   -1.82741227897525   -0.25667249992496
O          -1.67514183165307   -3.18691973630009    1.19165917326768
H          -1.09851254939731   -3.81986339125421    1.60662258421714
O           0.63139599768513    2.18276143447894    0.65457031617456
H           1.05179528304445    2.88175407496565    1.15732057716280
O           1.01917133954503    1.56026312902025   -1.92119147341941
H           0.92295439977755    1.85541074133288   -0.98522799398059
H           1.51118266029567    2.24153664482692   -2.38038232496655
O           2.18230829578836   -0.89990723536190   -0.98259288645529
H           1.88941245162308   -0.12722166738801   -1.48340364144264
H           1.37917084328602   -1.41664221236671   -0.79485641404526
O           1.72114289309071    0.01995393020477    1.51718888753950
H           0.98671022667005    1.32360096397700    1.04709718454388
H           1.22384269142385   -0.74052555019727    1.87300005105239
H           2.14170134508188   -0.32281914699847    0.70119704778360
O          -2.03844301113324    1.60322666605828    0.44845012588815
H          -1.72552444911065    0.79159987636217   -0.81868176353454
H          -2.04733851782062    0.80246307580815    1.01344303003779
H          -1.16931469224223    2.00653242005815    0.62628830840297
N          -1.30186929962838    0.14452865729617   -1.57419959245285
H          -0.92857371116307   -0.71537890105935   -1.04800787211837
H          -0.49834654011263    0.63375638146809   -1.99543202573817
H          -1.98364782272722   -0.12914555696858   -2.27213834843093
