    26
        -50.46272413  Gyration_radius:  2.48206236563 Dipole_moment: 6.103
 S          -1.86118276804772    1.27739281674642   -0.61700769666968
O          -1.71662027178366    1.43665616273454   -2.04136059599019
O          -2.25768185300672   -0.03486675742424   -0.16924244010478
O          -0.67359083689714    1.73328135324038    0.13199374077327
O          -3.02183804872955    2.28467891330774   -0.19406430523374
H          -3.05984531337926    2.84351701738853   -0.96318091001085
O           0.82762565020045   -2.12646140120226   -0.62000466046082
H           1.08182074043251   -2.86177753227632   -1.17927933441152
O           2.41274499069030   -0.65318998887417    0.95710027832712
H           1.89284490647486   -1.24476708971043    0.36354130285280
H           3.27711523870160   -1.05168807859389    1.06247373558077
O           1.86531830584938    1.54281105732741   -0.82175682890452
H           2.21172056419202    0.93219305764444   -0.15785079417098
H           0.98942161706098    1.81893476822863   -0.49944516081104
O          -1.20514474496142   -2.00047512721966    1.21334959470954
H          -1.81948579886947   -1.43762435233599    0.69726849158400
H          -0.53554085445441   -2.27675826216017    0.56155402450611
H          -0.50875423056580   -0.78386286370627    1.84438165760672
O           0.37362057090730   -0.19634757911165   -2.25624526097201
H          -0.46128129546635    0.30763833430582   -2.29087608743420
H           1.04357974446819    0.45942033291691   -1.97110532063001
H           0.56125034687251   -1.38958746574398   -1.25612845037092
N           0.02356897928264    0.13574700372008    2.04354448823122
H          -0.15858982228309    0.49123892205738    2.97481649336537
H          -0.30867331516204    0.83422136710790    1.29688516498077
H           1.02759747847389   -0.04032461836711    1.89063887365721
