    26
        -50.46999198  Gyration_radius:  2.46210761363 Dipole_moment: 3.173
 S           2.10544844049708    0.23638936060723    0.64269488667707
O           1.29616770376472   -0.96824358873617    0.90729426066627
O           2.83567884946819    0.14549080083594   -0.59828134129398
O           1.31177332899395    1.42594008809021    0.81156667399855
O           3.21843032227241    0.23698256962816    1.78295759895493
H           4.00762293799235    0.12694643211292    1.26326317102106
O          -1.68192675623263    1.34175530087823   -1.33697182133840
H          -2.00905970737327    1.87564429886658   -2.06190853240543
O          -2.26291398266530   -1.22071363783397   -0.52082441859337
H          -1.49897548258784   -1.69402216815808   -0.89044917601713
H          -2.23624175414403   -0.33060500555825   -0.91833521125128
O           0.25132867423750   -2.16069059118617   -1.18438627871043
H           0.69379681381707   -1.76107132619772   -0.39655527050607
H           0.74777457352242   -2.95065686085130   -1.40076110359569
O           0.65040401822727    0.41805071178176   -2.09998704655901
H          -0.75413689571180    1.08520925176934   -1.58576566998786
H           1.49068819611718    0.51367431743650   -1.61574862642239
H           0.47283078411891   -0.53536567789352   -2.08866823305944
O          -1.20158053008878    2.13174620536955    1.24734965448296
H          -1.51479386981091    2.04920165491526    0.32820629538414
H          -1.25651998388673    0.63323867262286    1.68662818833912
H          -0.22758995731649    2.13070491201497    1.16515420576089
N          -1.15082117753330   -0.43337000414458    1.74183321221942
H          -1.42864365419260   -0.80234205773097    2.64346204298165
H          -0.13987305484747   -0.64880726988362    1.53357511556177
H          -1.71886782650102   -0.84508640905526    0.94465741370333
