    26
        -50.47000052  Gyration_radius:  2.46313288951 Dipole_moment: 2.858
 S           1.45218420246412    1.19392816217066   -1.17178473466580
O           1.20434922978187    1.37320249164637    0.26869744879439
O           2.50475628118954    0.24627751984567   -1.44661005479050
O           0.21628477024679    0.95414718443532   -1.87454248489326
O           2.01801727957087    2.60231314399083   -1.65755889504274
H           2.77261594123084    2.32716244541905   -2.16710505606853
O          -1.54631696204318   -1.95672246497581   -0.41178356109966
H          -1.81307218201253   -2.81785076575382   -0.73561777318411
O           1.54826200958553   -0.72418231936306    1.81160361919223
H           2.38027804568841   -0.66259462192767    2.28219610847576
H           1.48367266277719    0.08834862029171    1.25404874371675
O          -1.18847879874426   -0.97499860106490    2.13324974222772
H          -1.42120635412284   -1.47499649671838    1.32891788601365
H          -0.22077152593789   -1.02850202142071    2.20223969570539
O           1.05996175924828   -1.84985297756023   -0.66791429005302
H           1.32470525554868   -1.75115419983520    0.25985654419151
H          -0.57508028523428   -1.88053713531626   -0.61080158274940
H           1.56203252155964   -1.15934606916242   -1.13858604260644
O          -2.33331192206388    0.50752405732567   -1.32954786079070
H          -1.48680873352890    0.71814930736714   -1.77204989023662
H          -2.25790898713237   -0.44037169934195   -1.11658034444846
H          -1.88444439242635    1.12767786670819    0.03063351640159
N          -1.35149152168920    1.37078642343006    0.93048048890657
H          -0.34276498532525    1.50397967667831    0.65525412046542
H          -1.38388428673890    0.51250328713179    1.55487850922557
H          -1.72157900192180    2.19510919579347    1.38842615728690
