    26
        -50.46272416  Gyration_radius:  2.48197334973 Dipole_moment: 6.099
 S          -0.83240512937610    2.09107089184353   -0.63948734810777
O          -0.60910586048333    2.03356194063935    0.78414443985796
O           0.23450151955952    2.66584819513064   -1.41824915882287
O          -1.25856393181424    0.76997051570857   -1.14141955471365
O          -2.08907658625490    3.04270582781388   -0.87623007811496
H          -1.80277456084274    3.52613323352034   -1.64407315500256
O           1.89763002280513   -0.72821265911662    1.20821792552197
H           2.81000471952424   -0.78771963635164    1.49478687805998
O           0.41941088495500   -2.64259578265684    0.05915156902845
H           0.84139996125300   -3.50005249071492    0.11942321351411
H           1.02138868133601   -1.99386057223186    0.49430091218402
O           0.43726429593901   -1.00575350686447   -2.30899982635838
H           0.36626667549493   -1.71007942244318   -1.65136216539064
H          -0.25499857530200   -0.35960644459931   -2.08405283855586
O           1.97919549264319    0.72089981509791   -0.91340090952861
H           1.45510067557460    1.53404572310563   -1.04150590901683
H           1.90652269805974   -0.08869843936883    0.42736472048920
H           1.63210780003749    0.09801999785685   -1.58552591671553
O          -0.27329067690496    0.18090820631105    2.61084569749658
H          -1.18001488121252   -0.54866117823066    1.60696872680613
H           0.60459142755084   -0.12984787508641    2.32376726328312
H          -0.38153652909901    1.04029724029687    2.15221840541427
N          -1.64828041516035   -0.97350391000505    0.72990460417479
H          -1.55625898811455   -0.22993741008152   -0.04086952117257
H          -2.62122356795878   -1.20779834252528    0.88904467531297
H          -1.09785512221386   -1.79713390705022    0.44503737035780
