    26
        -50.46983301  Gyration_radius:  2.43228463156 Dipole_moment: 4.341
 S           1.37141961738994   -0.10847209792283    1.52972341553996
O          -0.05183443182128   -0.02222137977820    1.89645845107595
O           1.71090167149664   -1.44058666700983    1.07692985478331
O           1.75330374799779    0.95661111048274    0.63806805741834
O           2.17450202947197    0.11181334276792    2.87713443829430
H           2.19587114264041   -0.76717963845588    3.24070995164863
O          -0.13729283558245   -0.44999981605355   -2.03800559049365
H           0.82377976218912   -0.63429557472531   -2.08211061671433
O          -2.93535998211935   -0.36725603676571   -0.88503154258670
H          -2.50735097408659   -1.12422609903327   -0.45556595703544
H          -2.51579583712894   -0.29598102365872   -1.74932859402463
O           2.45715733554237   -0.82712013501452   -1.42730088148769
H           2.78177944517603    0.05998222762904   -1.25026731797023
H           2.26651247233049   -1.19356274921570   -0.54359988020523
O           0.16117514189665    2.06723686325841   -1.19365151710876
H          -0.99310554935930    1.93111096555556   -0.20973547517129
H           0.88937787878731    1.85279833096479   -0.57755817937372
H           0.03833916582383    1.23632251282539   -1.70987486650015
O          -0.90012312472993   -1.87165225556616    0.22105042057545
H          -0.22815713734129   -2.55857425052666    0.23685055553131
H          -0.61954778892171   -1.24384815219652    0.92082503872523
H          -0.43800708154818   -0.99244154601541   -1.28746758370513
N          -1.68627958539078    1.54330158117524    0.52942330830590
H          -2.32811550267098    0.87215947966690    0.03662708611395
H          -2.19771661922179    2.27367918764989    1.01050427436047
H          -1.08543295176683    0.99240184653057    1.19519316860256
