    26
        -50.46983304  Gyration_radius:  2.4323226156 Dipole_moment: 4.339
 S           1.78220032160109   -0.06660152566849   -1.02554203248721
O           1.24333840657362    1.26002988769474   -0.68330146588222
O           2.37733575134824   -0.69956758297372    0.13200041617668
O           0.81176342123805   -0.86594937590747   -1.72885168064959
O           2.97260588414233    0.20237216562642   -2.03533569816133
H           3.70049925084377    0.36427500854370   -1.44438896855288
O          -1.17904484326767   -1.23659208683011    1.20734396258708
H          -0.61187081471568   -2.00887599375469    1.00374444653722
O          -1.90548340810455    1.64533004991991    1.78830709034079
H          -0.98965931676354    1.54878452058536    2.09259537308637
H          -2.30080568419605    0.77320921954581    1.89425172525840
O           0.76998737540896   -2.84429524914098    0.27805186881325
H           1.45592353263812   -2.15229433126001    0.32382193889367
H           0.57523329132134   -2.92231771455620   -0.65980927002457
O           0.69409830747682    0.71385984144455    1.83615124266989
H          -0.54311429050775   -0.55718421503081    1.49357238425196
H           1.42367379108809    0.16995064961647    2.14516466289888
H           0.96365919200866    0.98913370588768    0.93390274126253
O          -1.82686186821801   -0.76430487632414   -1.34124946802160
H          -1.69731013425964    0.74097926034175   -1.15245875873278
H          -0.92571688972200   -0.93552632320195   -1.67965751655024
H          -1.78303219114234   -1.05452108822382   -0.40003657229641
N          -1.35544658272677    1.72195783773055   -0.83905304853172
H          -0.30515457595970    1.65886172106310   -0.86455017834056
H          -1.65095490752217    1.85282638722059    0.16128278176240
H          -1.69586302861838    2.46646012763663   -1.43595596623117
