    26
        -50.46983298  Gyration_radius:  2.43238088149 Dipole_moment: 4.344
 S          -0.26303680929485    1.71473243292238    1.10598477577927
O           0.77286673027421    0.76868766837632    1.55270105656553
O           0.18798487613131    2.47485894729020   -0.04009263190527
O          -1.53886192852231    1.06518171956885    0.94574732303694
O          -0.42587705170892    2.75929073445345    2.28554811087214
H           0.26088207160160    3.38808977353823    2.08955941317182
O          -0.40018075624005   -0.72008718785139   -1.92294426045128
H          -0.94126291433933    0.07048135449681   -2.12743893642323
O           1.85901781609870   -2.35347277607548   -0.73728025115083
H           2.21883225110933   -1.45851956605335   -0.83883677718168
H           1.20393245364542   -2.44413218924690   -1.43778893917125
O          -1.65954023840310    1.65634455175189   -1.80682045170251
H          -0.96043752781100    2.07771855777151   -1.27279316898904
H          -2.37496090851158    1.50583234814768   -1.18299818933585
O           1.88073174484401    0.40687545535988   -0.81121802464014
H           0.43397128901571   -0.34416374694629   -1.59010063587328
H           1.87752104262080    1.27157701905392   -1.23061683209102
H           1.55932009609909    0.57935987148543    0.09957232861004
O          -1.88322066336613   -1.46541387522615    0.17037803575910
H          -0.64938484420538   -1.83663337873888    0.98136975938592
H          -1.99766662260159   -0.55500536762973    0.50789644902949
H          -1.46804006591517   -1.33680620316443   -0.71462124633388
N           0.34367528051302   -1.83692368105870    1.41882849128665
H           1.01316232237654   -2.16716053158459    0.67866558545781
H           0.40248442833909   -2.39715686718607    2.26092805294341
H           0.54808792822104   -0.82355506347393    1.61637093333897
