    26
        -50.46983305  Gyration_radius:  2.43234581701 Dipole_moment: 4.339
 S           1.54407500150008    1.00649208980916    0.91387947457914
O           0.90453162303110   -0.08590811860547    1.66565363410529
O           2.43188078139149    0.48600700648199   -0.10377958576509
O           0.57536200204300    1.96580702025227    0.44831902075610
O           2.46934122678878    1.75903212153801    1.95621772585038
H           3.26849199777244    1.24385181881370    1.92000105226286
O          -0.74507401266065   -0.34596922096120   -1.92447673859481
H          -0.12700693128964    0.31291739925721   -2.30318706656954
O          -1.73286679569497   -2.55435791906464   -0.10076199081828
H          -1.97830209911655   -2.16311543793900   -0.94618707424013
H          -0.77111312706616   -2.67200524623377   -0.14390178981692
O           1.19168154514122    1.49328750322392   -2.26055620053128
H           0.83289423556887    2.28184930925552   -1.84447475569222
H           1.77247570229980    1.10593203081043   -1.57934238315573
O           0.92933413717387   -1.84645548979173   -0.29575441695801
H           0.98043608342177   -1.25681914913127    0.48666377942840
H          -0.16533428246137   -0.92449676332231   -1.39802999787121
H           1.77204544735960   -1.72221105424475   -0.74074707910342
O          -1.92863323565880    1.38820887187880   -0.27274689235184
H          -1.97220209180529    0.36765926642637    0.85605430575978
H          -1.09462580779440    1.83201661070704   -0.02112684235117
H          -1.66541466912058    0.80001481319321   -1.01899232281449
N          -1.71403761626762   -0.43120559509376    1.54362128111641
H          -1.82684055428209   -1.33953868518342    1.02668179787119
H          -2.26145926442571   -0.40890415402388    2.39584452503302
H          -0.68963931579081   -0.29208904805883    1.74112851988226
