    26
        -50.46983304  Gyration_radius:  2.43234760275 Dipole_moment: 4.340
 S          -1.05589759255916   -1.12377996027992    1.36201124971021
O          -1.75888281074430   -0.69921136625525    0.14011729306145
O          -0.15797035327461   -2.22540951408988    1.08829545791075
O          -0.45986337825454   -0.00432837007237    2.04535434853810
O          -2.17585768754218   -1.70232813968616    2.32105429829445
H          -2.24299032789169   -2.60435982145123    2.02587220738070
O           1.98604863570538    0.40714329305424   -0.51673143458098
H           2.30998069724692   -0.06352974606048    0.27889832912956
O           0.23062799607736    1.00780320630461   -2.91002752772744
H           0.16208585758488    0.04909839246222   -2.78035885368192
H           1.10772513363441    1.24462919524620   -2.58953413980677
O           2.14977718470453   -1.02766091374793    1.75528951560028
H           1.79719564439957   -0.43590947697939    2.42554402852633
H           1.39784025157846   -1.60496717116627    1.52569588185781
O           0.14211566683501   -1.39365687669099   -1.54849390771898
H           0.49271444223724   -2.22285737803069   -1.21213372446323
H          -0.62597316108293   -1.20363439090954   -0.96847047100905
H           1.38319739917932   -0.23560933148879   -0.93072011201398
O           0.52274427680602    2.17272208249652    0.85429766875280
H           0.19054796544144    1.51234908897396    1.49415559418202
H           1.21946934971907    1.68550924748389    0.35503273009867
H          -0.61969587447556    2.08611170303633   -0.14864159569356
N          -1.35154065945173    1.71488461276200   -0.85852810955728
H          -1.65925826689646    0.78869074809434   -0.46448148653578
H          -0.84793445269292    1.53413714960268   -1.76343267919049
H          -2.13620592627455    2.34416372737917   -0.98006457104188
