    26
        -50.47000736  Gyration_radius:  2.46302838386 Dipole_moment: 2.588
 S          -0.02798668443212    2.19801665351094    0.28859657305187
O           0.52179315671355    1.50078577585011    1.42786315664374
O           0.95650276568952    2.65938374129275   -0.65818748085924
O          -1.11458865999651    1.42710685966951   -0.33128674535045
O          -0.75504783088475    3.50313984632150    0.84198446623756
H          -0.02551579066062    4.10839406094258    0.92126973181353
O           1.62126704700884   -1.89879503184855    0.35189768186487
H           2.46023284995129   -2.36039333275183    0.32842822991809
O          -0.52308891533462   -0.00702888128392   -2.45521821647519
H          -0.77421954486175    0.58388129615892   -1.70589401583880
H          -0.80835955277116    0.43655103430857   -3.25490658581117
O          -0.75391662723872   -2.33076000879111   -0.96797036662662
H          -0.68603725611783   -1.66022798414691   -1.66780495199427
H           0.13078619774722   -2.37341467115340   -0.55981711090480
O           1.90625499359088    0.22849207534252   -1.14885703222196
H           1.24996128017968    0.04965951937393   -1.83998952389757
H           1.73066374909483    1.14975147338885   -0.87983892699940
H           1.76872128487722   -1.04226812292591   -0.13177915334069
O           0.30753714440438   -0.88851829273470    2.53894219042942
H          -1.01673841417464   -0.89740274015103    1.71647567411896
H           0.88929887909471   -1.38019239134519    1.93124014218445
H           0.49808238074731    0.05112060702870    2.34097518539153
N          -1.74978098006316   -0.79732213254672    0.93775261309064
H          -2.69731973697719   -0.89785635499930    1.28160001127509
H          -1.51278504707063   -1.51299752509862    0.19003063132222
H          -1.59571668852289    0.15089452656555    0.50449383291888
