    26
        -50.47000811  Gyration_radius:  2.46289805226 Dipole_moment: 2.579
 S           1.25584297496997    1.79483097701137   -0.34014088051040
O           1.17951157008622    1.43394840985588    1.05636098449053
O           2.40065915247753    1.25666759931099   -1.03172901572220
O          -0.01581221409656    1.52883248427277   -1.02691240079723
O           1.40229689021431    3.37957905139492   -0.40962142913205
H           2.33977670032926    3.48857613522517   -0.29031651038012
O           0.13613987100129   -2.13845236135531    1.32952059550589
H           0.53310029551586   -2.93300462727679    1.68811308756164
O          -1.89898572429450   -1.75934985004998   -0.48223737679057
H          -1.38362451226657   -1.56449339818278   -1.28234307884846
H          -1.25355455548059   -2.08722127710359    0.17138399853396
O          -0.19827143462118   -0.70757960495474   -2.39841496926202
H          -0.11786583643413    0.16804442638786   -1.95034425825995
H          -0.08179137455470   -0.54209065078233   -3.33472373139889
O           1.76341131785226   -1.27261466504864   -0.53032246163654
H           1.19336563805098   -1.34065684126610   -1.31199653005252
H           2.14586539561012   -0.37685301434628   -0.58667620498439
H           0.80725330600255   -1.75891099957990    0.70086725590030
O          -0.51151011988860    0.17629662875720    2.65239429981253
H          -1.50205466389243    0.52824831837655    1.50167688176308
H          -0.28365871858992   -0.73900854481130    2.40773320813377
H           0.21687179172114    0.71067200076677    2.27508852005196
N          -1.95897062470136    0.67473209660655    0.54054301011797
H          -2.12594324133533   -0.28725044847914    0.12295859715966
H          -1.23421206714239    1.14218211567876   -0.06503831919822
H          -2.80783981647456    1.22487603959658    0.59417672793558
