    26
        -50.47001093  Gyration_radius:  2.46314946716 Dipole_moment: 2.613
 S           1.48550846263139    0.67761178634609    1.49886415216142
O           2.30440670180579   -0.49359771991072    1.69100477408006
O           1.65716322527165    1.32399587777602    0.21916318559727
O           0.06269522597816    0.44518663638239    1.78591933425124
O           1.93908845618679    1.71529439310024    2.61960148037717
H           2.86772415066881    1.52111357155801    2.69037373522716
O          -0.00217637641836   -0.72259401128078   -2.41702583338815
H           0.29625137929918   -1.18363171908175   -3.20181753894673
O          -2.27951964706116   -0.96901505381739   -0.89302707889850
H          -1.93442879870182   -1.49411892632701   -0.15198539877186
H          -1.58245153745940   -0.98901885116326   -1.57479769192287
O          -0.89164560180179   -1.95415860129980    1.29080301490371
H          -0.52974157408829   -1.07327201538566    1.54997733305349
H          -0.97218239408205   -2.46046126243639    2.09996706645412
O           0.16402645754453    1.96058657407483   -1.86791193538552
H          -0.96942779861632    1.78893134621198   -0.81135172892041
H           0.87966482192375    1.87983865349355   -1.20499660200070
H           0.13558446385769    1.08383829769578   -2.29227263152516
O           1.29178707575735   -1.78108125480851   -0.40100132168540
H           0.56786174421771   -1.05519350906801   -1.67283544466838
H           1.82683693100144   -1.29686325030259    0.25540759745754
H           0.55500565814229   -2.14802497705361    0.11180992367794
N          -1.59558035832348    1.42687024417224   -0.01720971922083
H          -0.95019845786282    1.15319248909707    0.76961850521111
H          -2.05005450454215    0.53053169807010   -0.36017994923102
H          -2.27619771528936    2.11403958393795    0.28390277212678
