    26
        -50.46983303  Gyration_radius:  2.43236993746 Dipole_moment: 4.344
 S           1.01186968174276    1.71754365230996    0.50919634210181
O           1.84472531488227    1.52471702991159   -0.65868310644267
O          -0.40498364329219    1.84932873631573    0.13154225000767
O           1.19187089968574    0.74438255844246    1.55609628765052
O           1.42625735139506    3.12197381171683    1.11315573304548
H           1.66100970742448    3.61188891223303    0.33200339458869
O           0.41033339210670   -1.94575373183212   -0.65035404034875
H           1.36877064002495   -1.81667874364990   -0.49465167535434
O           2.81854218203890   -0.90183726604282   -0.05178619229855
H           2.59110044621738   -0.01237353864120   -0.38127748851484
H           2.79737569097687   -0.81186462252503    0.90484162565120
O          -2.43072232296733   -1.25154461643290   -1.43607543625459
H          -1.89949898502523   -2.04395846910892   -1.30204584782002
H          -1.87120268945281   -0.65454739863122   -1.95678915789937
O          -0.29140545354379   -1.45085292266567    1.87957155866477
H          -0.03674111855168   -1.84983490275884    1.01467085596658
H           0.33446178168177   -0.70729775903552    1.98578163744909
H          -1.50530886511512   -0.64254885751074    1.44200867204483
O          -0.27010749672012    0.35991809434255   -2.03898577106594
H          -0.34779225567804    0.99237548756836   -1.29303355619879
H           0.57164469031822    0.57895217891472   -2.44776927618963
H           0.16314498482805   -1.17641746525695   -1.19346582559060
N          -2.16381583782773    0.03368030720638    0.90677974664210
H          -2.44663654639648   -0.44411364902633    0.01413139860493
H          -1.55645842801395    0.85688737661035    0.65931966327870
H          -2.96643311077142    0.31797580755494    1.45581818829843
