    26
        -50.46983302  Gyration_radius:  2.43226743002 Dipole_moment: 4.340
 S          -0.96434820818699    1.68322138590802    0.68449223042176
O           0.32835403015830    1.86883646512902    0.00477930173686
O          -2.01917829898702    1.41708148659974   -0.27007148290749
O          -0.86255075313079    0.73506361420552    1.76424541745796
O          -1.31022222275544    3.08470239852249    1.33661419508461
H          -1.73441170637151    3.53910819692005    0.61630130353986
O          -0.44110731272422   -1.98034021629035   -0.50911457804873
H          -1.34824975933047   -1.89107614849330   -0.15045178715554
O          -2.71222863376052   -1.03205109261374    0.58180906525627
H          -2.48862128000463   -0.91257257073596    1.50884377852421
H          -2.60769498101358   -0.14333839814976    0.19354937529792
O           2.12301149432713   -1.18021036613256   -1.90651418199296
H           1.43435313913577   -0.62500382383531   -2.30417913234113
H           1.67452507755641   -1.99180034452750   -1.64517918583837
O          -0.19597566682764    0.31208340172964   -2.05632886768106
H           0.00847056088519    0.96893854626261   -1.35683774495185
H          -0.35760663059536   -1.21688926739582   -1.10750783263020
H          -1.11612019829484    0.48030017719751   -2.27688170205156
O           0.76506305107930   -1.38000558540818    1.79821315013387
H           0.35001382414790   -1.81551661744750    1.01715817987066
H           1.81264907390361   -0.52988629682348    1.09184927340347
H           0.14002996914163   -0.66297581407210    2.02414329843596
N           2.30400164277281    0.15977126838968    0.41349693148795
H           3.19077371847203    0.49675564115407    0.76922449325053
H           1.61611045056082    0.94651773577181    0.28855460418499
H           2.41095961993882   -0.33071376586064   -0.51020811248843
