    26
        -50.47001084  Gyration_radius:  2.46325674591 Dipole_moment: 2.617
 S          -0.87332746215744   -1.97513082950853   -0.49982309272414
O           0.56858799134746   -1.97477237689758   -0.57588630257117
O          -1.40442548281694   -2.41934447283100    0.76506826502957
O          -1.42557999929695   -0.68639773433001   -0.94131838551143
O          -1.40562964615767   -3.01309164208867   -1.58511384877300
H          -1.41333096636184   -3.82148478907642   -1.08366873918525
O           1.89253340305668    0.88917017698366    1.41064970622600
H           2.45796848985681    0.97359305273457    2.17920285268418
O           0.09732015650062    2.61957861603495    0.24747053817790
H          -0.73638930835262    2.25892076024305    0.59233887662946
H           0.80310670200445    2.17861931701591    0.75591732588017
O          -2.08078889718873    1.04970587681409    0.92124361951466
H          -1.90838462208492    0.38004580782927    0.21701349974140
H          -3.02849947658254    1.05617569685118    1.06022702304192
O          -0.17685798685183   -0.52635369070163    2.16751293768557
H           1.16487136571150    0.26494261888990    1.67563902345675
H          -0.89181258581724    0.11486280899896    2.03319793036666
H          -0.49987268422874   -1.34266171496262    1.74204331935544
O           2.50301252242253   -0.22810274904973   -1.02002946477486
H           1.32037643358507    0.56573420033507   -1.65372659976031
H           2.52843712371984    0.18085124149285   -0.13589671937555
H           1.97105968475041   -1.03955265920953   -0.89051535317676
N           0.36863483459851    1.02691829615444   -1.84164105045495
H           0.25320729906577    1.80813525139870   -1.13168604683428
H          -0.36290273114695    0.30379388093102   -1.61272307037259
H           0.27868586239901    1.35584505596987   -2.79549626426681
