    26
        -50.46272415  Gyration_radius:  2.4820237543 Dipole_moment: 6.103
 S          -0.09286892724618    2.22493558767353   -0.71844296884998
O           0.15462999475962    2.14739817622140    0.70022425703059
O           1.07356925275843    2.37026616015891   -1.55121093447440
O          -0.96377257482224    1.11194312107519   -1.14476417206747
O          -0.95855152939284    3.53968499332003   -0.96935069706134
H          -0.55847533197653    3.86491418360541   -1.76903614499806
O           1.58217703716547   -1.28982850276623    1.19323522630821
H           2.43031094720795   -1.64801104734095    1.45869193236656
O          -0.50662063043193   -2.62202568244826    0.17686449031852
H           0.29792654457199   -2.20370743067641    0.56443668167755
H          -0.40080198577307   -3.56951310234926    0.26730957248610
O          -0.02700015171304   -1.17999420641671   -2.26807207756547
H          -0.44680033697811   -0.32758139980139   -2.05717580828155
H          -0.30736059619289   -1.79224093369136   -1.57514550676610
O           2.06687671950636   -0.03568764111226   -0.99776473157122
H           1.50103136408771   -0.52625591584206   -1.62969578534932
H           1.84754212419115    0.90260761097308   -1.15186060173645
H           1.77682706196292   -0.72142092074615    0.38227472001274
O          -0.08827432898600    0.36023400607597    2.60561417320946
H           0.61814186137836   -0.24319979512505    2.31160768094218
H           0.08512283568924    1.18714377453306    2.10896518090178
H          -1.22974535549199   -0.05059613941024    1.66145384119086
N          -1.85001600901225   -0.32106317518196    0.81831233758988
H          -1.62619967696874   -1.29358402339433    0.56017982244079
H          -1.54052146503869    0.31662755850846    0.01013537645683
H          -2.83714686325492   -0.20104525584249    1.01321413578948
