    26
        -50.46983306  Gyration_radius:  2.43234481789 Dipole_moment: 4.339
 S          -2.01113787838062   -0.34537624868929   -0.26231094969590
O          -1.66701590998553   -1.41798904253378   -1.17105224786060
O          -1.44837326887392   -0.58667968593577    1.07654523136259
O          -1.70165920847859    0.97989125461883   -0.73484157727181
O          -3.58360078735294   -0.41271136621224   -0.08419595126529
H          -3.75218547725063   -1.34577221295397   -0.16331557751743
O           1.74303321832932    0.15386387544317   -1.14704781710467
H           1.22177698941901    0.13792533638840   -1.97627659106268
O           2.52419153239002   -0.53005593715932    1.69883819093218
H           2.03973967356063   -1.30560040565885    1.37558033338880
H           2.93668352413688   -0.14545413213880    0.91781343739041
O          -0.25210423765679    0.01108334312997   -2.94867320553914
H          -0.71746430347856    0.84504025604399   -2.84063977782575
H          -0.77336766875639   -0.62412330885983   -2.42304811169547
O           0.53290224118940    2.32592740686889   -0.17015745851121
H           1.13271693087070    1.67475536130904   -0.60415600148871
H          -0.35866893100372    2.05248784025847   -0.46369009433689
H           0.48268301890232    1.73405813472681    1.23164686266143
O           0.64738655784891   -1.96693881233035    0.27037999898943
H           1.41806173277957   -0.62392248679159   -0.65981090803732
H          -0.16205493568235   -1.53816495120531    0.62173615589219
H           0.32923078334530   -2.51895102938252   -0.44911307652108
N           0.38112298126456    1.04647957608450    2.06497210136603
H           1.25359268893426    0.46100975945588    2.09761665819730
H          -0.42266148896064    0.42146919757796    1.79839422632459
H           0.20717223289386    1.51774827794124    2.94480617922925
