    26
        -50.47001088  Gyration_radius:  2.46319124498 Dipole_moment: 2.611
 S          -0.03224129165419    2.12381990102450    0.63375258709893
O           0.57517636357442    2.07742378045171    1.94071965366547
O           0.88167151494094    1.88713241095095   -0.45884014275200
O          -1.22576710724047    1.27377139488731    0.51722750798924
O          -0.59735375232140    3.60418652389605    0.46745574575947
H           0.05348288599622    4.10813004826456    0.94436354442801
O           1.73349145369346   -1.74010840125376   -0.57518976465432
H           2.54055118416748   -2.24773363528526   -0.48302945643068
O          -1.27806371984535   -0.93511982776246    1.94240073256342
H          -1.82378628262584   -0.82283965045291    2.72160713930003
H          -1.30314060249644   -0.07433308444674    1.46019668947813
O          -0.91703111952353   -2.44318333880352   -0.35128275369347
H           0.05268882840586   -2.40028693069111   -0.44569615438690
H          -1.10645248635035   -2.11626676512782    0.54381995187720
O           1.14404370635978    0.17156258750322   -2.45335244544385
H           1.21961540033099    0.93341244409060   -1.84339216136580
H           1.52212616342755   -0.57214460519255   -1.94986892874017
H          -0.37179973389081   -0.04167618634812   -2.15801296821890
O           1.42818207572984   -0.42399868800007    1.66841169627915
H           0.59310997967023   -0.80167759326115    1.98536387802129
H           1.68019032459932   -1.16465917621036    0.23437081923182
H           1.30735161834007    0.54000910778973    1.75636925806865
N          -1.31898838970804   -0.19327362706646   -1.67462378943172
H          -2.10125715588913   -0.06150046152722   -2.30455181724280
H          -1.35422093549526    0.48534792864205   -0.86920753460816
H          -1.30157890215370   -1.16599419605709   -1.24901131666770
