    26
        -50.47001089  Gyration_radius:  2.4631270289 Dipole_moment: 2.617
 S           1.74141268476710   -0.75352204298365   -1.14545644593569
O           1.14004058194866   -1.23652632263310   -2.36378683810760
O           1.74870671282309    0.68412659067553   -1.01125239513588
O           1.20134428609842   -1.39370481369295    0.06254379552980
O           3.25998703498961   -1.23387452880024   -1.18843328681222
H           3.44607105531820   -1.18458724059564   -2.12004899289713
O          -1.69696918066681    1.85457329923090   -0.20883947656116
H          -2.33329769935648    2.42555655123645   -0.64078988336374
O          -1.32266117750432   -2.12877221286399    0.01403269671542
H          -1.39810970965092   -3.07251331720537   -0.13160874744858
H          -0.35689379195071   -1.92540946647425    0.01857184476154
O          -1.97345144708618   -0.06594844015934    1.74198393365962
H          -1.95207660175504   -0.86935474840343    1.19599647217583
H          -2.06563999766185    0.67453931741237    1.11409029069320
O           0.82002918640358    2.49581706850551    0.67545481820873
H           1.29639543679841    2.01875221620537   -0.03425613787110
H          -0.10531792240089    2.50957509942485    0.37027958530547
H           0.77772941756579    1.25496818626638    1.61814671589434
O          -1.21513787783355   -0.10809786838760   -1.87475004081431
H          -1.43995661265264    1.17254916840775   -0.88572578019772
H          -0.33686602757435   -0.38529759983730   -2.19636471708819
H          -1.53247594547185   -0.86454636118831   -1.35760768575855
N           0.63016493603286    0.27286300040006    2.02748862699137
H          -0.41777193362377    0.11924940787914    2.10377377743193
H           1.10428429497438    0.14689393935912    2.91374726718439
H           0.98046030747675   -0.40730888180603    1.30281061343918
