    26
        -50.47001084  Gyration_radius:  2.46321112884 Dipole_moment: 2.619
 S           0.87985604627341    0.42266632232173    1.99013896742679
O           1.66231289684206   -0.52361555010944    1.23037855924756
O           1.31345725822504    1.79228301255359    1.86570821360499
O          -0.55701622554109    0.24288843601654    1.73751463342736
O           1.04850277435270    0.04986755000719    3.53003144048705
H           1.82067890624862    0.55486060606298    3.76209045815574
O           0.80619012448556   -0.19352499701998   -2.38212631450233
H           1.29313710399586    0.04345916543144   -3.17221250779574
O          -1.88736906091531   -0.22926613265417   -1.82199183789208
H          -1.97002624391520    0.60138497682699   -1.32471261327762
H          -0.99707555437850   -0.20846698556330   -2.21953811729336
O          -1.68995502281956    1.85121278851615   -0.00678949934870
H          -1.29370186945724    1.29135275482583    0.70287099831148
H          -2.18336207655368    2.54095496566277    0.43858908167168
O           0.97164240648172    1.86247379357193   -0.76801879806116
H           1.28916108357894    1.84414956258573    0.15422895687596
H           0.96139770254391    0.54570909901467   -1.73500678017602
H           0.03693893309841    2.11051732764506   -0.69661829099310
O           1.26235419019133   -2.30113101955753   -0.68533475641389
H           1.23284179319670   -1.68758170484936   -1.44180124179495
H           1.62970584247557   -1.76093371308475    0.04367370123841
H          -0.20463943156437   -2.17360589890797   -0.17355868406318
N          -1.14963360502611   -1.79688559898265    0.17128150834403
H          -0.93139713500050   -1.06889651382667    0.90126116987225
H          -1.74584994500807   -2.52680688873556    0.54257564036505
H          -1.59815089178731   -1.28306535773618   -0.64263388739916
