    26
        -50.47001088  Gyration_radius:  2.46312446401 Dipole_moment: 2.616
 S           0.14571499141251    2.12597653362368   -0.60970227271162
O           0.53142304127117    1.91703041984802    0.76601715648452
O           1.24283890245405    2.11911726816029   -1.54548271416632
O          -0.95050265948896    1.22476305377550   -0.99304362423818
O          -0.50041322200242    3.57926998326657   -0.70570621604940
H           0.26637680198579    4.11477970674195   -0.87974288848490
O           1.40852648556028   -1.67109820939165    1.26046916286041
H           2.20151578905784   -2.14378077236083    1.51603191917557
O          -0.87690508693716   -2.48241395234022   -0.03838520437332
H          -0.03696947000014   -2.39955568848667    0.45034947610160
H          -0.69018175548329   -2.15608575375092   -0.93429225397894
O          -0.31377454866064   -0.97216663033182   -2.28945294930516
H          -0.49158840276065   -0.87731710889860   -3.22591372843090
H          -0.57318858267680   -0.11732961779092   -1.86985851320660
O           2.00785739008208   -0.34702923944865   -0.91841737227948
H           1.39758229914944   -0.75708069940410   -1.55074644915420
H           1.89451384627133    0.61171285669412   -1.05805582062065
H           1.67213608887304   -1.09041333675610    0.49719432704509
O           0.01235087850979    0.19726841492107    2.70591170667285
H           0.30309837339873    0.96681581923095    2.17542450320789
H          -1.23291423326940   -0.07595467195257    1.80841839788696
H           0.59608520162496   -0.52559714872255    2.41214541135437
N          -1.88585930686873   -0.26262878251249    0.97621441035619
H          -2.86402200308905   -0.16876215934530    1.22224182027904
H          -1.65283393235865   -1.23015527709397    0.60582039171469
H          -1.61086687606899    0.42063496234018    0.22256133385541
