    26
        -50.47001092  Gyration_radius:  2.46315013148 Dipole_moment: 2.619
 S          -0.58543218771013    1.86328526335875    1.04793757026873
O          -1.44617301137231    0.75099060235711    1.37473061224397
O           0.50193266148075    2.06923346728949    1.97238314912154
O          -0.15100317310413    1.79975421347627   -0.35498531347902
O          -1.47208180568201    3.18545472007658    1.11625632514882
H          -1.37263551031038    3.43132181592323    2.02974401622887
O           0.31528553331449   -2.43526587446468    0.57919655827943
H           0.60763833730755   -3.19131288341057    1.08956118144641
O           1.05784304291093   -1.49003645082634   -1.89564986412240
H           1.65500165088487   -0.77029010835642   -1.63217637419831
H           0.88883352822153   -2.00042644923133   -1.08193960336144
O           2.22620208113605    0.78754292986021   -0.84114333470478
H           1.36474923465162    1.23664021931606   -0.66691101996878
H           2.86311650229831    1.48290164942184   -1.00955370390693
O          -2.24446705776283   -1.50388290392995    0.24823806408665
H          -1.45099925139689   -2.03965130970943    0.42972263990900
H          -2.13677218870677   -0.71890412339610    0.82298113829701
H          -1.77809913325615   -0.75147320372835   -1.03499333916835
O           1.53565482384891   -0.34804877836604    1.58665750815531
H           0.69814551088614   -1.63690555783374    1.03222657738154
H           2.06173638521815   -0.06262983381295    0.82365835293354
H           1.10867675906483    0.46855639029075    1.90660474970080
N          -1.22410740713265   -0.16877451371088   -1.74733238508533
H          -0.89905618531207    0.69433626904444   -1.23763836553711
H          -1.77305994967420    0.06857147975225   -2.56492336537759
H          -0.35092917979269   -0.72098701939343   -1.99265176429324
