    26
        -50.46272424  Gyration_radius:  2.48183971435 Dipole_moment: 6.103
 S          -1.75463256106245   -1.54752445296089   -0.01046945130447
O          -1.67889720353586   -2.15179809325680   -1.31590394605151
O          -0.72411158273928   -1.93493076345133    0.92107527787130
O          -1.86231599422002   -0.07640264480419   -0.06742002615541
O          -3.14323510104474   -2.03519602075836    0.60176640646250
H          -3.58250309774068   -2.34826123365430   -0.18208503085475
O           2.34077149823397   -0.14911960616400   -0.30169415738312
H           3.18128413336244   -0.41140474477121   -0.67965661017147
O           1.32244195911869    2.32242966863070   -0.14071951126536
H           1.97880378260873    2.98970509207495   -0.34296205151601
H           1.76677130510268    1.44616723515604   -0.22609473451661
O          -0.69080448218784    1.43750939774259   -1.99806809937234
H          -0.08482753160895    1.93175055980734   -1.43049698377547
H          -1.28994246560154    0.96041298048077   -1.39742745086509
O           1.29632943035276   -0.79656038909185    2.14711658402666
H           1.86485212935218   -0.66235813308821    1.36710430288507
H           0.32670024846577    0.38725355725008    2.00452860367781
H           0.62445675957186   -1.44146242560292    1.84163033577480
O           0.58905965070338   -0.94337452432683   -2.00741820460501
H           1.64120797433222   -0.53427290088946   -0.91885664642022
H          -0.16388659485925   -1.52468383697678   -1.78970603630661
H           0.17510895840498   -0.09431907381012   -2.26814899338984
N          -0.37011161885653    1.13940172672126    1.66133628704754
H           0.15876175465914    1.83462052044234    1.11417704124179
H          -0.87843601721183    1.56945704252446    2.42522589312483
H          -1.04284532359720    0.63296107277685    0.99316719184082
