    26
        -50.46133355  Gyration_radius:  2.4555352593 Dipole_moment: 4.858
 S          -1.61022807537401    0.77115200412988   -1.15251782093843
O          -1.54967296626379    2.15457575572823   -0.67954296960332
O          -0.49272203404540    0.45754074003560   -2.01901578711185
O          -1.76403718577896   -0.17019521330369   -0.06351813818359
O          -2.92026976004505    0.65904003480832   -2.03078211680326
H          -2.73806081907999    1.24301242234630   -2.76037812352592
O           1.22196493223971   -1.27309944293950    1.71594428626342
H           2.04529221455728   -1.74949003738527    1.82928562446775
O          -0.26581643689853   -2.41088664355692   -0.40685699032512
H           0.08733860551690   -2.36954185091569    0.49219821211826
H          -0.88809779625964   -1.66421800576947   -0.45815505539879
O           2.00682728498707   -1.83749673013817   -1.75196974424626
H           1.73738099613557   -1.58072719822502   -2.63587142896651
H           1.18434297669591   -2.17321789617236   -1.32624496454445
O           1.56722900456205    0.39074014138407   -0.39479968327060
H           2.06322799888649   -0.32465240255752   -0.85338234746763
H           0.78702727494705    0.48420217117105   -0.99021714071298
H           1.35404026371532   -0.66776328717983    0.95082833959237
O          -0.97082169812976    0.16825518148350    2.46613500729814
H          -0.24160481467906    1.39996995636378    1.87841781318393
H          -1.48152362078304   -0.03231382043009    1.65498758878182
H          -0.27290000078825   -0.50608011453823    2.48918008693085
N           0.20487130659954    2.11509392506870    1.20447040581902
H          -0.53518880535628    2.26422353939652    0.43863088711396
H           1.01075532206253    1.66775622162291    0.74341954894590
H           0.46064583261963    2.98412054953534    1.65975450053303
