    26
        -50.46133372  Gyration_radius:  2.45475598904 Dipole_moment: 4.886
 S          -1.96082893961518    0.74973886398663    0.31401351591529
O          -1.55152121226681    1.00692779231834   -1.05131146099553
O          -2.64807873209205   -0.53652992159020    0.43416799379731
O          -0.87655862469485    0.87851886794372    1.26449124502501
O          -3.02340001688910    1.85770631862992    0.69316142069890
H          -3.67465516591006    1.77328256864936    0.00376399347597
O           2.36743054047330   -0.54516622987610    0.40396197245793
H           3.19898304654713   -0.60987620696449   -0.06715470947334
O           1.31273221594306    2.07349131182403    0.18564690460883
H           1.91069984883482    1.39443113929625    0.52629095791853
H           0.43673789469671    1.81843752155659    0.52470046782447
O           1.50151271434207    1.49058906562329   -2.44664244086193
H           1.49297939062609    1.82858646197804   -1.52140692526787
H           0.74486067642332    1.90563808339728   -2.86509798961080
O           0.40115557861921   -0.69994434323385   -1.45299129565313
H          -0.37632791957334   -0.11519720257995   -1.29353034784158
H           0.93965706379277   -0.12937746197868   -2.04697630421274
H           1.65707971715015   -0.60508158717951   -0.27519585170549
O           0.54169194597434   -1.10857655831369    2.35181291616735
H           0.00962869255199   -0.30039262274332    2.20097391880511
H          -0.18654148572711   -1.96352238076254    1.28802838189436
H           1.39628475865656   -0.92086165174140    1.93113490616161
N          -0.75671406873566   -2.28327129203102    0.42901587091039
H          -0.99433520272046   -3.26856691902645    0.45405792376496
H          -0.23095455845560   -2.03330160533205   -0.42129300563703
H          -1.63151813795069   -1.65768203186017    0.43637793183916
