    26
        -50.45601990  Gyration_radius:  2.51541827243 Dipole_moment: 5.336
 S          -1.88678476811649    0.75212333894067   -0.61942198220966
O          -2.38017673328488    2.05847571797412   -0.18440134213484
O          -0.60865047569706    0.91467306373313   -1.29756536614831
O          -1.84159681419682   -0.22056352747166    0.44807380376434
O          -2.91014152956160    0.19325804915300   -1.68633227396066
H          -2.81973475948158    0.77065415471987   -2.43938778573032
O           1.78410261058767   -0.96467000774779    1.44755966270695
H           2.67942616367746   -1.12141357215138    1.74791852214460
O           1.17208866864950   -2.57864300626244   -1.95693762947547
H           1.56198565299451   -3.45277927698089   -1.98874533411597
H           0.51852824192637   -2.59880469047527   -1.21961829259287
O          -0.32028661772554   -2.46881702747438    0.26632681437883
H           0.37189309162092   -2.15458106091476    0.86528769363314
H          -0.98954090723044   -1.76280245131722    0.26256922138206
O           1.83425599323284   -0.12664273773305   -1.01280116092885
H           0.94968276511920    0.25469107163734   -1.17574860987513
H           1.85188742465988   -0.62669207741970    0.50475140315558
H           1.79958469600007   -0.97403082066105   -1.49687844622309
O          -0.14105828337642    0.67856829240109    2.29843362371388
H           0.02974639039125    1.90191162728680    1.45050387645747
H          -0.89157100303411    0.27447298667310    1.81467865325741
H           0.60945087609103    0.06492902897148    2.14141397449375
N          -0.03800836617677    2.66101683203567    0.66318034949559
H           0.26054118378629    3.58410269270637    0.96107149163464
H          -1.07120413092946    2.61718447132869    0.36094488672104
H           0.47558062004470    2.32437892913911   -0.15487573354862
