    26
        -50.46272412  Gyration_radius:  2.48196866636 Dipole_moment: 6.094
 S          -0.41779031996893    2.25109274498938   -0.48124955317248
O          -0.16814516797362    2.05765686799613    0.92594101336110
O           0.71860281417538    2.65430627725752   -1.26942464348717
O          -1.11334701258750    1.07554651029150   -1.04085022267996
O          -1.46613592069096    3.44501723524068   -0.60889679200457
H          -1.11057758337402    3.91376037196642   -1.35666304454025
O           1.74995477210448   -1.16523684316194    1.08210822710780
H           2.64036869196952   -1.42205122112925    1.32561707228886
O           0.15825602208970   -0.91975533298786   -2.38022697056703
H          -0.38425843824989   -0.16587700540780   -2.08921453558578
H          -0.03184914559660   -1.63748161310732   -1.76188507570110
O          -0.11456201822783   -2.67145434047830   -0.11192189867387
H           0.12952634209191   -3.59740715415314   -0.11949232911150
H           0.61782378625335   -2.18389452746636    0.33356787693545
O           2.05449445635598    0.37454093900203   -0.95363088754283
H           1.69946951527281    1.28166740775390   -1.01191685470724
H           1.86248116806399   -0.49051785410004    0.33989472679575
H           1.57001359825838   -0.12259961945739   -1.64529556025903
O          -0.15291965636987    0.06012683343509    2.62649467446170
H           0.63637137856628   -0.39794434319421    2.28470158498780
H          -0.10141648710220    0.95212936161157    2.22365573216935
H          -1.21674047887058   -0.40885737491374    1.62102478178902
N          -1.78650652181486   -0.67472645012638    0.74147612608349
H          -1.57133179776126    0.08473067006237    0.01182736295490
H          -2.78137527849917   -0.72234089464204    0.92809253260539
H          -1.42040670811417   -1.57043062528122    0.38626665649215
