    26
        -50.46133379  Gyration_radius:  2.45445585717 Dipole_moment: 4.886
 S          -0.70538422704517    1.55996305196573   -1.25452820865028
O          -0.10996974075928    0.51422426852116   -2.06063192950127
O          -2.13838514461500    1.33652028806497   -1.06042793519845
O          -0.01314170948769    1.77269129769767   -0.00109229886272
O          -0.57253066942138    2.90538220367198   -2.07457509401618
H          -0.97640962535507    2.68674430234640   -2.90860441104855
O           1.04747614388039   -1.14684481572159    1.91159212627329
H           1.57772657136216   -1.92100278472247    2.10462769921370
O           2.40184644210809    0.52931238477145    0.07556848438421
H           2.22646340548371    0.13718133517437    0.94172575832298
H           1.61588557759912    1.07292635764655   -0.10894749757927
O           2.34073975598107   -1.72937840727137   -1.40769552977875
H           2.50113434465523   -0.89733143562784   -0.90544296311925
H           2.21434082268977   -1.44595585770622   -2.31518786083828
O          -0.13444674420938   -1.58517128355783   -0.48580241480379
H           0.70442677969817   -1.98599536158593   -0.80804223165141
H           0.61782813407848   -1.31358577970138    1.04151209654032
H          -0.19806766268597   -0.79703836457463   -1.07449282712244
O          -0.73872756433403    0.85704039224110    2.40244471435465
H          -0.00937462126877    0.23223095227726    2.54424747945696
H          -0.44401749739097    1.41508319283341    1.65357629659940
H          -1.74908885583969    0.02609983892855    1.57703016110079
N          -2.27062917903781   -0.46793984918748    0.77129347875642
H          -1.66016118979869   -1.20743031852556    0.39404727347608
H          -2.34938090416877    0.27889269431899    0.00145031354893
H          -3.17815263212273   -0.82661829225547    1.04635532020054
