    26
        -50.46133379  Gyration_radius:  2.45445206873 Dipole_moment: 4.895
 S           0.18679981958234    1.93399150568820   -0.85373567898783
O           0.83782607876454    2.59016551042717    0.28059386974072
O           1.08424732867050    1.01173288271587   -1.51889709536437
O          -1.07432672652197    1.32844264858081   -0.48182579191734
O          -0.15286262166356    3.07610502536420   -1.89307039018732
H           0.70765649212056    3.38773902235234   -2.15557813098064
O          -1.02650085352951   -2.01493294555711    0.97912885018825
H          -0.92060632229845   -2.96701688944874    0.98582647627793
O          -1.44808828348417   -1.09057641339110   -1.66331586457481
H          -1.69785223457099   -1.51265557160317   -0.83012175508338
H          -1.30659300846752   -0.15638378479470   -1.42993814456086
O           0.92526004553582   -2.32697680579736   -2.04563157708106
H           1.40389506877096   -1.78754242272308   -2.67796009059509
H           0.01791569177519   -1.94419121272229   -2.02617009786238
O           1.34103050149854   -0.96736086902782    0.18488525255124
H          -0.16170514169555   -1.64049225311613    0.69355030416699
H           1.42081648291633   -1.68838386223859   -0.47984525031592
H           1.27472737403872   -0.18104820302111   -0.40618401244812
O          -1.76054579063107    0.43098852103730    1.94017662470728
H          -1.74351844811460    0.87185736597162    1.06589642276690
H          -1.80116120983821   -0.51719087900812    1.73556103502693
H          -0.26139645002585    0.65473183077193    2.24695149761948
N           0.80065987450397    0.82572352279861    2.15549654293711
H           1.22301589925825    0.00644528787894    1.69470123604300
H           1.24679692625248    1.03664017035269    3.04115838967127
H           0.88450949704657    1.64018880846128    1.45834739829748
