    26
        -50.46633008  Gyration_radius:  2.51100168887 Dipole_moment: 2.630
 S           0.40773256989699    1.51523740739155    1.38324268624314
O          -0.56660976490357    1.54838777503020    2.44802992488127
O           1.17283684801270    0.30086240962932    1.27751660649800
O          -0.17682741028709    1.89172530409917    0.08561922965601
O           1.44904258287578    2.67554651214998    1.71369997435287
H           0.89972017535664    3.31725693941507    2.15201650450889
O           0.23177412678389   -2.42583513144769   -0.44996546992356
H           0.35007472434889   -2.94563783592735    0.34620255265209
O          -1.09301434989767   -0.98423324169332   -2.60343966291884
H          -0.67701962500682   -1.82975749757530   -2.40018119426051
H          -1.59956271592642   -0.76378116001926   -1.80409377390277
O          -2.00460536623216   -0.65414964259745    2.66636814401096
H          -2.83419601636961   -0.37513129707706    3.05831693248907
H          -1.40604133968521    0.12325892073471    2.72455613997590
O          -1.52678594377676   -0.42677611300205    0.04506400901246
H          -1.82953217027206   -0.63338667235951    0.95483186378411
H          -1.11182295761763    0.45131344318796    0.10680276691727
H          -0.36521489424712   -1.68766580779743   -0.19056096371060
O           2.41235210673047   -0.84778622821794   -0.74332331610503
H           1.61879991289832    0.13291592993228   -1.63382296146802
H           2.20250782666376   -0.40803114058152    0.10749170155745
H           1.80187226919795   -1.61274936194593   -0.74398762632859
N           0.86012376103464    0.77239068865862   -2.05663852269141
H           1.22615221808667    1.39007422253309   -2.77158685413913
H           0.46489908852463    1.32209781824665   -1.24345172786635
H           0.09334434378461    0.15385375926030   -2.42870697320978
