    26
        -50.46633010  Gyration_radius:  2.51101043562 Dipole_moment: 2.612
 S          -0.35877543172280    1.21952418689732   -1.66218360125523
O          -0.52370901163433    1.65381844746613   -0.30015428553464
O           0.86892834207211    1.62740815934495   -2.30300802057317
O          -0.59773135874920   -0.22709133433555   -1.79313790458457
O          -1.53046725395897    1.90403744140402   -2.49782080132635
H          -1.16230131883179    1.92673972302504   -3.37512828066154
O           0.61809094367330   -0.00324502231959    2.40025033417293
H           1.08157786143103    0.78966041994103    2.67334209511284
O           3.01972754499215    1.33219016293347   -0.80232242321009
H           3.74412676914668    1.21861265465396   -1.42038864078133
H           2.24439176988696    1.59822664881649   -1.34478074958502
O           0.16867687571894   -2.67146191298231    1.33248495357148
H           0.82821252828120   -2.27271926670083    0.74086260376115
H           0.26859943875068   -2.19259173471406    2.16317308874461
O           1.42409070648181   -0.69296064984727   -0.09131005914410
H           0.75628813328891   -0.52589390524637   -0.77917511831160
H           2.14050495354381   -0.04600251761263   -0.26494193203893
H           0.90619123835847   -0.16536499101239    1.47328781689396
O          -1.91029012939408    0.68918141463795    1.72128350180839
H          -1.55860952080278    1.25975811363583    1.00574578996519
H          -2.05652981414075   -0.58217003699914    0.85726367371775
H          -1.10464920634097    0.46102483826248    2.22788774834489
N          -1.89084712546224   -1.40012350505055    0.17400258377945
H          -2.74604424712703   -1.89018933860389   -0.06075835918403
H          -1.17942905423807   -2.04150284058357    0.61143979264360
H          -1.45002366323095   -0.96886516501908   -0.68591381630855
