    26
        -50.46633003  Gyration_radius:  2.5113867585 Dipole_moment: 2.612
 S          -0.85024191371946    0.34098430080551    1.88252903104523
O          -1.51813663617034    1.61938272013356    1.94472751238951
O          -1.37989355849940   -0.59184665783935    0.92311761264565
O           0.60765440660838    0.48415988460457    1.73777688564670
O          -1.05510000951925   -0.32342556627796    3.31655905153841
H          -1.07920158720834    0.43805327759114    3.88706965786884
O          -0.46830642888822   -0.74178859873338   -2.31918836480276
H          -1.38857225223499   -0.64885354288976   -2.56926807720100
O          -2.04820739344862    2.67755439767308   -0.41407537464069
H          -2.00830459093296    2.26675781197444    0.47803549016534
H          -2.07565827405679    3.62446066590893   -0.26460861552722
O           2.32324235684785   -0.05243750862046   -1.88232474225411
H           1.73839119230551   -0.49486283488647   -2.50812504650414
H           1.82451641676908    0.73008036660591   -1.59438163956630
O           0.25167502866684    1.36115772093469   -0.77318450852042
H          -0.28655687116571    0.01317435208612   -1.71447934929239
H          -0.55015192692121    1.92542821913892   -0.80136826818067
H           0.37221005596789    1.13451819957618    0.16548774778764
O          -0.30514816329001   -2.61775546347557   -0.37287143756759
H           1.04882046079637   -2.04727855674272    0.10210136683366
H          -0.86210210365768   -2.05880365444946    0.20913849612387
H          -0.38569128212436   -2.17045256290129   -1.23957105678432
N           1.85937629447821   -1.39772687681991    0.39262423225140
H           2.20703807777827   -0.91409743868987   -0.47573470843661
H           2.60250310530354   -1.89320520165093    0.87110200192628
H           1.42584560633270   -0.66317745304193    1.01891212306760
