    26
        -50.46633009  Gyration_radius:  2.51132505333 Dipole_moment: 2.618
 S           1.93312985380550   -0.05482134398672    0.80215559847809
O           2.93065250801772   -0.27508678717690   -0.21801085711886
O           1.15821233536844    1.15020282296160    0.66510007604346
O           1.06446017335358   -1.22852064691636    0.99001099047422
O           2.73742940337806    0.08077915602630    2.17128612641308
H           3.48186133624058   -0.49301747232168    2.02198546126213
O          -1.65915977852676    1.42683913058564   -1.16561750178943
H          -1.26368122663166    2.15902360427748   -1.64055209517058
O          -2.64501590830149   -1.25293317296822   -0.61338395374895
H          -2.93930457073449   -0.37479773152555   -0.88109513658196
H          -1.81155638394528   -1.38739443314243   -1.09421905760409
O           2.08567875567991    0.19619213549672   -2.67343582431401
H           2.62853500005772   -0.35817420517946   -3.23705730519117
H           2.49228058016698    0.14886117567640   -1.77980467710376
O          -1.25512304741848    1.81907922402541    1.48307552931870
H          -1.60409605873980    1.86931105740693    0.57011352075354
H          -1.44625461482254    0.31291574241502    1.76400875871129
H          -0.28623523369696    1.77502229438052    1.33969876392863
O          -0.06530701987671   -0.74937164112195   -1.39616745862064
H           0.62637909147471   -0.43659392881417   -2.01723074773746
H           0.40943852946170   -0.97590857666128   -0.57739909063479
H          -1.00902116365124    0.69119756693345   -1.23537506888879
N          -1.41852573814256   -0.76455630276687    1.72272747403922
H          -1.99767204625569   -1.06663679045950    0.89680609461192
H          -1.73596137110824   -1.19513227008283    2.58323410502086
H          -0.41114341515304   -1.01647861707138    1.51914627542825
