    26
        -50.46633008  Gyration_radius:  2.51130286736 Dipole_moment: 2.618
 S           0.01122134044392   -0.57181394828511    2.01381215098363
O           1.35095153622545   -0.62950534445583    2.54863790142799
O          -0.41943835179499    0.72137620717697    1.55189706527684
O          -0.22291112871584   -1.60745540498598    0.99409529942407
O          -0.95339441305726   -0.96228452764407    3.22091945284539
H          -0.41520101218312   -1.57045809790414    3.71716759123936
O           0.11578378607225    1.93432187916395   -1.54845418652486
H           0.52994241642101    2.70707357555492   -1.16194263437066
O          -0.15873751175181   -0.61393561399254   -2.92228210625605
H          -0.22147305754039    0.33741355812432   -3.06502331177738
H           0.61551723789604   -0.72299097078550   -2.34559781271847
O           3.14428617126486    0.65849956884807    1.10286480466502
H           3.97719221686550    0.21983500552072    1.28589016497060
H           2.50111424589260    0.29223639188632    1.74964799425568
O          -2.20566008773532    1.46985257649062   -0.23371452406253
H          -1.70429982000228    1.32705260652498    0.59669489530631
H          -1.52503897260067    1.83615921549829   -0.83400242934969
H          -2.19818927257459   -0.00720248630173   -0.68356061306880
O           1.39923823132737   -0.28909857662184   -0.68859427547237
H           0.58400267593973    1.16418433291164   -1.15303922848775
H           2.14807311523935    0.08564578655581   -0.17792996049215
H           0.88873371350824   -0.81290179045883   -0.04667166137563
N          -1.91310514168948   -1.01722886234955   -0.93241054773843
H          -2.71213720430852   -1.62875784530036   -1.05162557036067
H          -1.29770671447764   -1.34441855820264   -0.13614079423847
H          -1.31876396866602   -0.97559868694103   -1.80063766409234
