    26
        -50.46633013  Gyration_radius:  2.51110789209 Dipole_moment: 2.615
 S          -1.03562651523677   -1.53855461624505   -0.97024136765914
O          -1.96600921943463   -1.02523979332818   -1.94763302983542
O           0.35017922781560   -1.23282005752227   -1.20961478882874
O          -1.42874161180083   -1.18997884439126    0.40495736646212
O          -1.16537830042101   -3.12540121714642   -1.04190219342902
H          -2.07999080202984   -3.23913948675162   -1.27926589697635
O           1.90381386186487    1.57479183636191   -0.18754187644518
H           2.17249835696033    1.73608097302212   -1.09303856693115
O          -1.51596848515841    1.47692020101804   -2.65570102377174
H          -2.36843658767453    1.81750554502332   -2.93310946948822
H          -1.63918756461535    0.50860764986773   -2.54006970635318
O           0.44696856051541    1.83798740430373    2.31676327688373
H           1.27066008208081    2.09474674041316    1.88667691934496
H          -0.22791878840831    1.92797224845057    1.62360414454423
O           2.42818009586983   -1.01722016011636    0.39516784055637
H           2.51803922602098   -0.05694017609221    0.22920462542875
H           1.39145454514757   -0.99863585444627    1.53941843254779
H           1.80291659726647   -1.29785633295916   -0.30596647915801
O          -0.79419084057729    1.37073846805906   -0.08287965873409
H           0.92818850356494    1.45075464009577   -0.22521198912218
H          -1.05532268838739    1.59239028057512   -1.00192808814311
H          -1.11265556617407    0.46252547598077    0.06167216745586
N           0.51282623045306   -0.83894665229097    2.14424439541559
H           0.50166396651836   -1.41925149688073    2.97477026495165
H          -0.30978854086743   -1.05706382753116    1.51541787307813
H           0.47182627673353    0.18602705252781    2.38220685822206
