    26
        -50.46851006  Gyration_radius:  2.45261310278 Dipole_moment: 4.996
 S          -1.80108105941108    0.04959565280179    1.02343378629087
O          -1.81891158232174   -1.21279218720616    0.29487199078526
O          -0.81932103974810    0.02411460209430    2.09839467261945
O          -1.67972675272487    1.19525477793796    0.15009130883512
O          -3.21359540676641    0.17535754068004    1.72588570671515
H          -3.22487844462862   -0.59578905832050    2.28252540837736
O           1.88164371866446    1.20258860024816   -0.24830413812608
H           1.47778205718558    1.88187009251092    0.33005413017548
O           0.25240830615122    2.50787295538969    1.47471290571515
H           0.20301621602306    1.88100953204880    2.20431105624744
H          -0.52980711742457    2.28681187580378    0.94019172140168
O           1.99468241717920   -1.88451139705392   -1.21401766692379
H           1.81342430479780   -1.78959453301449   -0.26043716368080
H           2.53286460687916   -1.12297941582974   -1.44942515917003
O           1.38815110235287   -1.07910218022516    1.30831635858614
H           1.83149221993107   -1.34943686204005    2.11419731667811
H           0.50979009078648   -0.71604649899955    1.59121803522201
H           1.82643595711365    0.39105500982780    0.27907863572705
O          -0.11007018284648    1.32735428183207   -2.04025814004229
H          -0.36001686083184   -0.18387371817269   -2.15409517611558
H          -0.80094001637524    1.52058899788733   -1.38160676068574
H           0.72952975094807    1.37924894292420   -1.52676129041755
N          -0.49654317198273   -1.23719798677551   -1.96337186966354
H          -0.96475042092027   -1.70879433848033   -2.72835998842003
H          -1.07210779534757   -1.29632436665308   -1.07513654676024
H           0.45052910332175   -1.64628029919995   -1.77550913336558
