    26
        -50.46850998  Gyration_radius:  2.4525112057 Dipole_moment: 4.996
 S           1.54326923785615    1.30034090533369    0.46992475173235
O           0.37627701307601    1.96754534240108    1.02954641361801
O           1.85014234232606    0.07525917149545    1.19774911682758
O           1.46858280331871    1.09552164937648   -0.95918456404086
O           2.76344885480810    2.27796773769847    0.71435412843827
H           2.75173021285193    2.37295038867809    1.66067505785696
O          -1.91929580452291   -0.05496305684347   -1.16596678230264
H          -1.71964862051601    0.85639654223154   -1.46375647308897
O          -1.48402843979150   -2.39991972877530    1.02239137802120
H          -2.04833295015595   -2.35046697799360    0.24516795408011
H          -1.50835955751993   -1.50888391148184    1.41810490865916
O          -0.82641955804051    2.40720627570969   -1.43145227926595
H           0.06640284974476    2.02954718344795   -1.51216584516241
H          -0.84816823382122    2.72350257753201   -0.52182538047491
O          -1.48794180124703    0.25689506511153    1.58865086184630
H          -2.05053674748704    0.70336183171433    2.22364666376502
H          -1.87728583216400    0.00603549503504   -0.19933385592609
H          -0.73098680267899    0.87395216280670    1.41667172451713
O           0.36159129673522   -1.04572476067843   -2.17026831268651
H           0.88081280093319   -0.23811890992322   -2.00658510956839
H           0.80013338353305   -1.82158008909679   -0.91926210125289
H          -0.56379662154372   -0.78068059550840   -1.95857889865662
N           1.01560267004489   -2.14305298474627    0.08804309625273
H           0.10339624294754   -2.40190797595048    0.53571488361785
H           1.40571411122799   -1.29142625948776    0.58432216750860
H           1.67769717003547   -2.90975707814027    0.11341647569461
