    26
        -50.46850976  Gyration_radius:  2.452861605 Dipole_moment: 4.987
 S          -0.89515458022930   -0.27269654116395    1.84920764980305
O          -1.78569486468960    0.63251946717193    1.13358908393576
O          -0.92795878369876   -1.60950519931950    1.27304844180933
O           0.43853561815328    0.26363904027182    2.00247223742979
O          -1.48671831417477   -0.41328227475742    3.31026574898816
H          -2.34912406194169   -0.77592225655552    3.13878603489436
O           1.78487632831459   -0.69456217040301   -1.17790328974665
H           2.06341560528457   -1.19818943273466   -0.38550746397452
O           1.83207298122151   -1.90237153531559    1.24439587229733
H           1.54239438937360   -1.08453245537168    1.68451835169884
H           1.02692319988710   -2.43007455909979    1.21185652900194
O          -0.60679816320084    0.71679227622027   -2.85139622982612
H          -0.88545358086783   -0.10217958760797   -2.40099759854378
H           0.32393810073520    0.59136255680516   -3.05853883942799
O           1.78775163508272    1.65069096817673    0.12214198052612
H           0.40218623982453    2.12729531513916   -0.33760116349730
H           1.51407588915567    1.27147401033203    0.97640751003304
H           1.95553318588581    0.86234911284077   -0.44521960236115
O          -0.89687318761872   -1.50464028200687   -1.31555773062397
H           0.87939651106988   -1.00198160963886   -1.33768800227847
H          -1.23775069530674   -2.35394135652970   -1.60113457121483
H          -0.96635392063497   -1.50390000759105   -0.32633060732627
N          -0.63725671739223    2.20078965177328   -0.61852706156541
H          -0.73870135042239    1.75525866694673   -1.56223952108653
H          -0.96869186548805    3.15839058183025   -0.61736434387949
H          -1.16856958839052    1.61721759052776    0.08931659493155
