    26
        -50.46850985  Gyration_radius:  2.45260076575 Dipole_moment: 4.991
 S           1.81845908804450    0.72327674225811    0.68087200252277
O           1.61469029116579    1.47116558602121   -0.55169525972837
O           0.85410424480351    1.11481841546466    1.70130849103714
O           1.87808367899792   -0.70860370438762    0.49103734063423
O           3.23980392977484    1.15779023074937    1.22438384725447
H           3.13544046226097    2.09869542495030    1.31628786666906
O          -0.88197053083609   -1.07669619792994   -1.76432973098620
H           0.02537355053049   -1.14704051056887   -2.12600211989906
O           1.77264457498626   -0.76333594794170   -2.19113174154492
H           1.84856875295814    0.19604697831773   -2.23108207033389
H           1.97011674025408   -0.96203897445821   -1.25949246473971
O          -2.96087941969953    0.44968654435522    0.19383428817052
H          -3.08710219359145   -0.27090285640200   -0.43044883592506
H          -2.32290698198177    1.05277025728250   -0.23099471268761
O          -0.90777945799859    1.65286364093094   -1.11574454483400
H           0.04312068840956    1.61286459862496   -0.83737570299258
H          -0.97417363723487    2.39881800294593   -1.71424748402299
H          -0.99063244146970   -0.12705920131963   -1.60236628726032
O          -0.24513842678465   -2.37314407324897    0.49544241960666
H          -0.86898723506900   -1.36812635964727    1.47516832325090
H          -0.57826806782776   -2.07041682563021   -0.38134160310883
H           0.66710264403374   -2.03389505141196    0.53022370575885
N          -1.20085109592605   -0.47962900060535    1.98993485796993
H          -1.46487601889631   -0.66770614816825    2.95001964430843
H          -1.99749056432850   -0.07803255078292    1.43895698076957
H          -0.38645257455620    0.19783097062529    1.94878280013697
