    26
        -50.46851011  Gyration_radius:  2.45269680522 Dipole_moment: 4.989
 S          -0.70165920208303    0.42713753162918   -1.90278397193599
O          -0.67565812759721   -1.02859080375355   -1.88753033202334
O          -1.72343762959302    0.94651231126059   -1.00236313842276
O           0.59209239734225    1.03536423121527   -1.68756870004040
O          -1.14788625274619    0.83997971152181   -3.36392309400959
H          -1.99100523433260    0.40645408434622   -3.44088375272699
O           1.72102426124714   -1.02206601856587    1.02066671659424
H           2.11038188964486   -1.16674187826435    0.13380673079676
O           2.08764393316044   -1.19392165034311   -1.65552204609733
H           1.76689405441680   -0.28401564282696   -1.78143096430089
H           1.33366266030562   -1.73101861411634   -1.92116205744914
O          -0.91069025876007   -0.46856088467943    2.82053325126670
H           0.00647948338939   -0.62498602576535    3.06400454049973
H          -1.08337722274880   -1.06006902219345    2.06463776772793
O          -0.88711783831751   -1.93175657432440    0.53169837876396
H           0.83364752971492   -1.40529503419311    0.94605032741487
H          -0.86661690631819   -1.55125286382444   -0.38386949343349
H          -1.18432554033680   -2.83770164433742    0.43199001486154
O           1.65044379383270    1.64196378084489    0.71917582268497
H           1.48640025218083    1.61191112947070   -0.24028994882914
H           0.19501328967218    1.84593975146306    1.16462334693924
H           1.83038644593265    0.70321139962992    0.95939869383175
N          -0.86767685669448    1.76124110174975    1.33282096769808
H          -1.27549295804911    2.62969486713131    1.65887973306014
H          -1.01459012232015    0.98117270448624    2.01800074560845
H          -1.28453585094105    1.47539405245463    0.40104046154188
