    26
        -50.46272411  Gyration_radius:  2.48208510402 Dipole_moment: 6.100
 S          -0.85410433811552   -0.34644267484289   -2.15099929985087
O           0.18544203942048   -1.08352110085064   -2.82264750413554
O          -1.61011817308860   -1.08217047523184   -1.16772680744001
O          -0.37221475500171    0.92465100384443   -1.57543066322935
O          -1.87482791772690    0.08522754622005   -3.29658536232531
H          -1.34076506906474   -0.05542388247643   -4.07138774624812
O           0.74973369554181   -1.42353671708587    1.73265917291395
H           1.20469827937749   -2.14761843937991    2.16486322451798
O           2.13903887887785    1.26888277676972   -0.59181934756187
H           1.89952266230928    1.43892671650992    0.32867799327914
H           1.30412026637302    1.28244595555691   -1.09185930136643
O           1.13607294701001    1.19984459464762    2.10571435944151
H           1.67370092448720    1.37246342095523    2.87914320544905
H           1.04376743676543    0.22080031106286    2.03133322758602
O           1.69870456839239   -1.39755475710447   -0.65633412437800
H           2.10963575369605   -0.50867003494586   -0.69076990552570
H           1.04880954190302   -1.46011647503999    0.76939739918604
H           1.15199246971500   -1.44451468003438   -1.46331067016863
O          -1.94704489508737   -1.03957141249568    1.43375397204291
H          -2.01135749517004   -1.25990061500776    0.48093159187470
H          -1.05841999737662   -1.34877328368404    1.68726412307447
H          -1.66452248135902    0.44342584016183    1.14379143896452
N          -1.26910525681356    1.39111289476674    0.80571643791658
H          -0.95450043631077    1.23186517022179   -0.20992781005129
H          -0.43229147993515    1.60380560624062    1.36867469893886
H          -1.95596714881876    2.13436270122188    0.85687769709613
