    26
        -50.46851010  Gyration_radius:  2.45266891809 Dipole_moment: 4.991
 S           1.74628403535385   -0.14856185450481    1.10589716350408
O           1.47664926362810   -1.53236784683633    0.74228048975843
O           2.10964941126783    0.64327821391313   -0.06272333211265
O           0.69635438781880    0.46347652283160    1.88896082341650
O           3.02810831167597   -0.18314235876364    2.03336706839872
H           3.66906544669438   -0.59839711843022    1.46644180455508
O          -2.13175240442683   -0.71041336683955    0.02788717287217
H          -1.94148750089518   -1.12563720201332    0.89414586515897
O          -1.01789222448473    0.42613376603918   -2.79015352824086
H          -1.91276742125596    0.32709640037333   -2.45196828051710
H          -0.53376781187296   -0.36090485503521   -2.47806630129855
O          -0.87348508011529   -1.69032172260578    2.21512102037010
H          -0.39578121829643   -0.85259904107687    2.34390152419147
H          -0.20898703115768   -2.26279076743612    1.81727336905005
O          -1.45840406043437    1.74005641718360    0.88539028597300
H          -1.89736168648749    0.91314446600410    0.57736877163746
H          -0.76826578039987    1.42631010607852    1.49667884068029
H          -0.53552699606977    2.10578999980536   -0.28667075092873
O           0.06979874212966   -1.65843351368340   -1.42996621013900
H          -1.44903804352853   -1.07559166732935   -0.55550029704345
H           0.65564108067066   -1.57231589763513   -0.63447497055131
H           0.21516169518994   -2.54393016571086   -1.76738663874667
N           0.19209796430910    2.10253019395172   -1.08357665554341
H          -0.22399002824710    1.56917572550893   -1.88482508202984
H           1.02333113357564    1.55958581340485   -0.71204314405262
H           0.46636582536707    3.03882972280412   -1.35735900835957
