    26
        -50.45511568  Gyration_radius:  2.504169373 Dipole_moment: 4.618
 S          -0.24593820126854   -1.08364002330124   -0.25736357346655
O          -1.18166758957805    0.01224622603155   -0.56369728223109
O           0.81102190242359   -1.15531080873544   -1.24101923506244
O           0.24741112703344   -0.97577952982821    1.10868643985280
O          -1.07850844353923   -2.39838222954640   -0.30839875995974
H          -1.35399875239870   -2.43158075589378   -1.26487539984534
O           0.54810359480161    3.06619254169957    0.51971730486305
H           0.44910833423662    3.74282038677759   -0.15246042523474
O           2.94117176660475   -0.68115544542353    1.03995711568121
H           1.99553457103178   -0.84427530894297    1.20923391291107
H           3.19802896903223   -1.33349208018042    0.38465342693212
O          -0.95843458967878    0.28205450271049    3.04579185792811
H          -0.40414598712963   -0.25275248922821    2.42624789996368
H          -1.61993737213157   -0.31501216990660    3.40005833624147
O          -1.55031529995343    1.80078607162935    1.09058735932249
H          -1.45831681987213    1.03212199954178    0.35471669246887
H          -1.37538021211485    1.31186881019267    1.97133597194564
H          -0.71205112160057    2.39520279483836    0.90946021931618
O           1.95185223252372    1.20725479278588   -0.62186318661958
H           1.47996105298027    0.45292928114244   -1.01692513478965
H           1.12191483674314    2.35238609944164    0.11051269614597
H           2.52903599415289    0.78478623753043    0.04496523123191
N          -1.39856242543605   -1.90368002263540   -2.84551748702493
H          -1.97761098429604   -1.07354806968917   -2.84988074766063
H          -1.52614589047159   -2.39445459375343   -3.72153327889267
H          -0.43213069213609   -1.59758623723061   -2.77238996398583
