    26
        -50.46272417  Gyration_radius:  2.48199227433 Dipole_moment: 6.101
 S           0.15671570922098    2.18117691110248   -0.83243276338789
O           0.17749211931535    2.17220994052300    0.60960682654020
O           1.44431328690478    2.21634731561528   -1.47731130910135
O          -0.70512854471534    1.09349770924474   -1.33564123656612
O          -0.57756184275391    3.52348585769466   -1.27961049902791
H          -0.03987001293522    3.78109590061300   -2.02105423628784
O           1.29648579996366   -1.30121454661242    1.48928636084540
H           2.07007945096106   -1.68746956759926    1.90215867013293
O          -0.68864139802877   -2.57688621959777    0.22301654690706
H           0.07073887299338   -2.18025793765637    0.71141549820832
H          -0.65651254118954   -3.52174397929891    0.37535150403172
O           0.25014219232279   -1.30651949908542   -2.18371149929900
H          -0.14404238761198   -0.42225601000376   -2.08368168794824
H          -0.17095057463117   -1.86181667805090   -1.51444171176470
O           2.18915029233672   -0.20332088451749   -0.65707260673605
H           1.69839504789782   -0.69880305535153   -1.34544933384626
H           2.05486003114717    0.73480043492870   -0.88965043799697
H           1.64827000274344   -0.79179313508176    0.69228538557571
O          -0.46651846216240    0.51491591453844    2.53852760447903
H          -0.16790742629490    1.30101817007781    2.03507560659178
H          -1.47167477112838    0.11143370744596    1.44775784118547
H           0.23819936638295   -0.14137075055955    2.38930971609801
N          -1.96984821533424   -0.17403695158233    0.53170258424751
H          -2.96588951423279    0.00977621450237    0.56269095215993
H          -1.76973753120028   -1.17048910488120    0.35977855077809
H          -1.50055895010155    0.39822022357592   -0.24790631601593
