    26
        -50.46272428  Gyration_radius:  2.48158562378 Dipole_moment: 6.106
 S          -0.11888599930404    2.24179213053318   -0.65729426032763
O          -0.01111267153143    2.12166222984412    0.77587971618783
O           1.11699967914582    2.46897613988142   -1.36152523955824
O          -0.89020217869741    1.10941282624585   -1.20640633537371
O          -1.01558045891471    3.52677346230354   -0.95086526790767
H          -0.54982655441511    3.90291628143122   -1.69051188563388
O           1.50699377771253   -1.26325530364010    1.31475215479410
H           2.33924194263896   -1.59322452640111    1.65623951798057
O           0.26514846786959   -1.09864106774459   -2.29332380382689
H          -0.05747936572796   -1.74665507883649   -1.65331875589456
H          -0.21425922843278   -0.27335532008178   -2.10256221978541
O          -0.39996925100636   -2.64634022109292    0.04100744447567
H           0.33925028358574   -2.20810291207678    0.52471063093154
H          -0.26035322926384   -3.59099127389243    0.11283115107832
O           2.15678158435748    0.09078940766538   -0.77212568554741
H           1.68471518985746   -0.40166946716968   -1.47557314730703
H           1.91207458587378    1.02346493432148   -0.92147280700853
H           1.75723544139877   -0.65694577963069    0.54788960204906
O          -0.37694884052219    0.26334535106689    2.59034793501084
H          -1.39274333955077   -0.16252097098817    1.51903457913643
H           0.38312499352674   -0.29977649941020    2.35632709418761
H          -0.18913173237816    1.11286120192936    2.13887293990581
N          -1.90870548761372   -0.42937668890953    0.60695387998053
H          -2.91528467526470   -0.35885958383487    0.69997793040804
H          -1.61437179168853   -1.38158507904228    0.34404183437246
H          -1.54671117165641    0.24930580752785   -0.14388700232742
