    26
        -50.46272418  Gyration_radius:  2.48169233162 Dipole_moment: 6.118
 S           0.09620143901538    2.11523999885393   -0.99485954660381
O           1.32593082066012    2.09590360996324   -1.74466989004943
O          -0.80685943148001    1.00271883692017   -1.35009857726800
O           0.23572247141109    2.20436012574081    0.43770513482409
O          -0.66938078779111    3.43003405661771   -1.47076794631188
H          -0.19823438222551    3.62885472647206   -2.27315946964494
O           1.40815926284569   -1.20530738374928    1.46879315382726
H           2.21116598167114   -1.57073212179657    1.84263228024565
O          -0.67631462736489   -2.54847048626593    0.45880638515282
H           0.12146996422210   -2.12523200522626    0.85515163484420
H          -0.63835892665653   -3.47940437796133    0.68015043400039
O           0.07333821921170   -1.45836341564760   -2.09871207379127
H          -0.31013067651123   -0.56635347794381   -2.03042661467451
H          -0.29481775370088   -1.96228722418922   -1.36107892213964
O           2.12919431822765   -0.26413338280336   -0.81247579865927
H           1.58479018287433   -0.80356702619821   -1.42306957469776
H           1.97879497856241    0.65598964972998   -1.10038943740552
H           1.69607454566922   -0.75384597906039    0.61337238696869
O          -0.26012511848516    0.69468206772845    2.52505570602940
H          -1.35048317786727    0.22527410972194    1.54829129268636
H           0.42817198165081    0.02309246710882    2.36777909398083
H           0.00062114347656    1.44055154992595    1.94524950495268
N          -1.92132336019602   -0.11929852812072    0.69728206945358
H          -1.73802653330078   -1.12704419645319    0.58071382849392
H          -1.51441844341504    0.39279883727334   -0.15582037130196
H          -2.91116210041756    0.07453958933953    0.79454533712735
