    26
        -50.46272429  Gyration_radius:  2.48159313317 Dipole_moment: 6.112
 S          -1.57089456159920   -0.05263089491597    1.73243986214013
O          -1.23723578645000   -1.14592664089720    0.79841151574928
O          -0.77281658639470   -0.08053357996695    2.93125667463510
O          -1.60636608385492    1.20692929355864    1.03102560954234
O          -3.06055316486622   -0.36271843541025    2.20796706764274
H          -2.89955170697378   -0.72115727087405    3.07451459620130
O           1.76149655069910    1.46187474670526   -0.59511894335658
H           2.52909899173415    2.02693179564253   -0.49715378533196
O           1.57620420568800   -0.80558181348108   -2.00722402921513
H           2.32656930496512   -0.92176156019560   -2.59068240215438
H           1.71817234830673    0.04005954170595   -1.51998750038687
O           1.27019537308292   -2.15846735317157    0.51550784287398
H           1.41389546204494   -1.90424418605851   -0.40552362216468
H           0.32919279931142   -1.98744538977216    0.69599458105455
O          -0.79942150927111    2.15912081892855   -1.27631707910827
H          -1.06389953063799    0.68716070838228   -1.63297837235194
H          -1.20537990165373    2.06314372122440   -0.38949565556390
H           0.15857533581968    2.13519090146625   -1.09985808870484
O           1.54601492878680    0.26893069552276    1.67220935361226
H           1.65862600086958   -0.66787752944723    1.40779154321259
H           1.61363790102915    1.05599408329320    0.31684309683138
H           0.73935232721110    0.27190503849609    2.22118423730772
N          -1.11213648524286   -0.39204799949941   -1.67313437934450
H          -1.23464180884469   -0.71852547532355   -0.65620880718432
H          -0.20130193801204   -0.73709258080296   -2.01065390630154
H          -1.87683245574225   -0.72123064501772   -2.25080938962610
