    26
        -50.46272420  Gyration_radius:  2.481835947 Dipole_moment: 6.104
 S          -0.45069677278168    2.21584416310593   -0.60060101590850
O          -0.49502093172992    2.04508049319175    0.83076602034335
O           0.79840076226198    2.69361220113325   -1.13590125252798
O          -0.93083999673783    0.99336217222668   -1.27427344184196
O          -1.52490963460204    3.33411536959343   -0.97009715310598
H          -1.05077811282427    3.82215257412849   -1.63526739327648
O           1.54811967275516   -1.03947573775382    1.45379997995517
H           2.38035870822199   -1.23361128622327    1.88711959823568
O           0.08876956482130   -2.67381037255442   -0.08566840373190
H           0.67380098825605   -2.13590810303520    0.49824338968058
H           0.38917634821649   -3.58104458574325   -0.02388979894146
O           0.72799445189979   -0.91506816024161   -2.27319817642097
H           0.08696463799219   -0.19906162851614   -2.11901805486669
H           0.45688192528380   -1.64210628009551   -1.69739017173741
O           2.18158266360705    0.51173873987850   -0.49606031083590
H           1.78880881057361    1.39226542277906   -0.64637252039221
H           1.77258722497582   -0.36070254930258    0.74148995917954
H           1.89211322202042   -0.01994229915622   -1.26659616270139
O          -0.71921859482190    0.05953777243807    2.53020647879502
H          -1.50786297684000   -0.48543214166247    1.32901351866750
H           0.15338558648922   -0.34562819027078    2.37519641264729
H          -0.64001009474403    0.95119521361964    2.13098053529516
N          -1.85572746756028   -0.79303267716299    0.35256619257185
H          -1.53868130350498   -0.02319497409618   -0.32735949301622
H          -2.86202496259812   -0.90808099152649    0.32159165279792
H          -1.36317370862743   -1.66280415475467    0.10071963113601
