    26
        -50.47000328  Gyration_radius:  2.46320215461 Dipole_moment: 2.783
 S           0.33854317672431    2.18114105830299    0.19035680617893
O           0.39810677105699    1.48875636054410    1.45427264731552
O           1.61273174742397    2.36896090911351   -0.45951302698014
O          -0.67254036624716    1.57319762319775   -0.68968457895577
O          -0.21312307861162    3.64952796810359    0.47123394158923
H           0.58539376423231    4.16107731992078    0.39704327155035
O           1.04217845080671   -2.12156401882341    0.89179906866871
H           1.74498558365732   -2.72707419295070    1.13066100233311
O          -0.91625680521840   -2.23712959039053   -1.03722338758741
H          -0.20563286661073   -2.40209067009815   -0.39004082418461
H          -0.52380550205675   -1.66006107563026   -1.71332832166093
O           0.17814681408311   -0.14733737007922   -2.48353040303809
H           0.21232516109067    0.25907043584562   -3.35024929994107
H          -0.14534266779021    0.54916605774372   -1.86296777594335
O           2.15348338539918   -0.23502036751418   -0.54801930118573
H           1.68681939565196   -0.35596477420632   -1.38954737932378
H           2.10091181533256    0.72340698802937   -0.37667715281739
H           1.48582038149830   -1.35542297253643    0.43894476861049
O          -0.59356840519905   -0.69417765276946    2.57063091168426
H          -1.60869880726575   -0.52811324733405    1.39745110159565
H           0.02064139835354   -1.33799256735008    2.17332579503963
H          -0.16883374863895    0.17133657249883    2.40450095475936
N          -2.06152924207355   -0.36871395054289    0.43686699992035
H          -1.60452099044676    0.48893790800591    0.02895785860500
H          -3.06684913393427   -0.25934154647025    0.49626764729948
H          -1.77938622118820   -1.18457523466824   -0.18153132354706
