    26
        -50.47150110  Gyration_radius:  2.426289143 Dipole_moment: 3.429
 S          -0.51986912140105    1.50082170695311   -1.00873498681123
O          -1.94776746891862    1.66936871916047   -0.78847067368637
O           0.23594507440349    1.71208048279016    0.21700701451876
O          -0.19497464105359    0.24466893000440   -1.65423473293562
O          -0.07694662271966    2.63326671859897   -2.01650897040328
H          -0.35149568767194    3.42494300998147   -1.56622931716202
O           1.06173452050450   -1.69002363736758    1.50930438545174
H           1.65183984262479   -2.28894944167349    1.96753093849539
O          -0.89216011907369   -2.00902683129957   -0.38075911654738
H          -0.17232340808419   -2.07236946118535    0.27514517285293
H          -0.60883933607549   -1.30970427270778   -1.00172958151759
O           2.33015422777013   -0.24979914632053   -2.34556348966662
H           2.31973123025600   -1.07181807648236   -2.83847155123535
H           1.39426879508075    0.00326626144209   -2.21680582906391
O           2.43922886824142    0.17007554430877    0.34410955214955
H           2.63101351976327   -0.01707381064966   -0.59292039940038
H           1.74132650119289    0.85183577041821    0.32302207998408
H           1.64821171800236   -1.01377452418734    1.05367652420887
O          -0.50370341887737    0.36987561211488    2.43839191621028
H          -0.17406472544820    1.02140163028786    1.78912250125650
H          -1.81413916419979   -0.04426185453384    1.65522739576644
H           0.08204966819040   -0.40207421255032    2.32674227428176
N          -2.45902059109195   -0.30529192059599    0.84436332573967
H          -1.99625381136448   -1.13250916346842    0.35504726302867
H          -2.41626843437886    0.50867728318592    0.17064719754118
H          -3.40767741566462   -0.50360530622464    1.14109109694299
