    26
        -50.46272419  Gyration_radius:  2.4819434516 Dipole_moment: 6.101
 S          -1.28368460125574    1.85675297149929   -0.61559191964726
O          -1.16205517527521    1.76056494230892    0.81824796974945
O          -0.34251201302355    2.73134398278070   -1.26696774164483
O          -1.31998052848966    0.50812139605655   -1.21469846740281
O          -2.71968919874496    2.47762296610296   -0.92112659672593
H          -2.50908584472749    3.06632564901951   -1.63833012199004
O           1.92203063479520   -0.31275130132509    1.34154914440713
H           2.79490856313445   -0.16155714309230    1.70667399471286
O           0.85427965095790   -0.70775628621817   -2.30395936014693
H           0.00559578733006   -0.27097184659488   -2.11361307758552
H           0.91433440805101   -1.45013700651121   -1.68845992743651
O           1.07060705016255   -2.45299261275802   -0.02436064912024
H           1.69044153126943   -3.18059258234588    0.03435152306643
H           1.45315521717629   -1.70580456612411    0.49317468784607
O           1.79368329807935    1.25102686345819   -0.69493243300255
H           1.09205392758480    1.91501213270374   -0.83313870287973
H           1.82711014448818    0.35986667333008    0.59515000344755
H           1.66925614807859    0.60824336692294   -1.42398525587032
O          -0.50949311599351   -0.06940973817800    2.58104749901885
H          -1.12149823546779   -0.93198921390055    1.46574819322166
H           0.43787503968927   -0.13202941338906    2.36159458862838
H          -0.79644125028613    0.76502457397973    2.15451322484866
N          -1.39779031387988   -1.39967322309256    0.53093529494005
H          -0.63616242110934   -2.03923835746692    0.26001726163151
H          -1.43819961668188   -0.60615576472083   -0.19317296541693
H          -2.28873909586372   -1.87884646244558    0.58933382335120
