    26
        -50.47150107  Gyration_radius:  2.42626502746 Dipole_moment: 3.427
 S           0.88322508796028   -1.46899800086739    0.77616336567493
O           1.42077799758710   -0.90248937455220   -0.45202877248769
O           1.57959881002468   -0.95810759415822    1.94658849569871
O          -0.55587532124862   -1.32755821534497    0.87209518198450
O           1.16331997234050   -3.02223184547008    0.72029892051852
H           2.11371703317994   -3.05716182666014    0.70167652981131
O          -0.96086307481691    1.78776482612362   -1.46345264668387
H          -1.40584848024181    2.29756823173198   -2.14093697685752
O          -2.09541166716152   -2.34433927589486   -1.04999746166713
H          -3.00160965421051   -2.23703384006772   -0.75653985065661
H          -1.53126447357122   -2.10373191368523   -0.28821390166486
O          -1.53478490821270    1.15424702486993    1.13704746039501
H          -1.36370461768702    0.19317929534619    1.09301699936305
H          -1.49008710569084    1.46211941034991    0.21209418271675
O          -0.46214824507803   -0.59490734447550   -2.35179924488634
H          -1.13679533359159   -1.25194598855617   -2.10095322645973
H          -0.82241112010793    0.87075002202998   -1.84928527839604
H           0.30037682994245   -0.78996062989072   -1.77490268337460
O           1.66121403076847    1.77927662196572   -0.63827126527916
H           1.35340620090585    1.83516943584372    0.91237070071217
H           1.76530759538733    0.81027469365241   -0.70759495223194
H           0.79540332384633    1.96079814226263   -1.04922967742895
N           0.94569505095553    1.57507530840206    1.86502655811103
H           1.23149365008837    2.20736394165467    2.60386267115611
H           1.25949001044656    0.58214425328365    2.04965373250898
H          -0.11222160181487    1.54273466210683    1.73331112941957
