    26
        -50.46272406  Gyration_radius:  2.48187850547 Dipole_moment: 6.096
 S           0.19710324602325    2.27414084427441   -0.51188925019486
O           0.26020255094093    2.05342685585711    0.91192274347615
O           1.46560136694242    2.37103929954522   -1.18752469113757
O          -0.71117481546803    1.29399938618753   -1.13885416053379
O          -0.50929235550978    3.68579863121370   -0.73401141498419
H           0.02044641123532    4.03953150632557   -1.44090389309530
O           1.29960183166954   -1.53697900895634    1.23998814908519
H           2.07279289460964   -1.99957677997872    1.56606694663800
O          -0.75874161171660   -2.56329352271907   -0.13112094089106
H           0.02660521078401   -2.26143909796442    0.38340854820637
H          -0.75263829762744   -3.52078829997640   -0.11510261318880
O           0.14838373027242   -0.97934219982838   -2.35784705235596
H          -0.21656758226327   -0.10968829666376   -2.11742649777280
H          -0.26963129111312   -1.61592624002373   -1.76319918996013
O           2.16265213874946   -0.16014985693989   -0.75194919445771
H           2.04915381554853    0.80493842633065   -0.84118376695988
H           1.64348713935488   -0.92537197807824    0.51443627829391
H           1.63794251219855   -0.53741355838607   -1.48850528682253
O          -0.37764922815037    0.14956175650400    2.60005549633859
H          -0.07027086714292    0.99294590111943    2.20654792442882
H          -1.42567034693577   -0.06432123317823    1.49610088675974
H           0.30255254883378   -0.49553058768186    2.33392984867730
N          -1.95872509652387   -0.20013391892108    0.56535805190524
H          -1.79283149324325   -1.16541588042980    0.24393551080208
H          -1.49574430711124    0.46811787700417   -0.13791850560491
H          -2.94758810435774    0.00186997536401    0.65568606334769
