    26
        -50.46173110  Gyration_radius:  2.49797660361 Dipole_moment: 7.254
 S          -1.22072145203249    1.09468060909985    1.70237349705899
O          -0.20820664682110    1.69340404110681    0.83114542815425
O          -2.44829238975167    0.84356744523213    0.94033811428278
O          -0.74711244282236   -0.05318058335383    2.41857884539713
O          -1.59785007546338    2.20494005556921    2.76495470828237
H          -1.93597512577929    2.89580800738637    2.20525776726671
O           1.99987823524201   -0.29908452623320   -1.58961873334563
H           2.88262049610224   -0.42415888347129   -1.93884435621045
O           1.09488853742511   -1.86320168599679    1.70569411117864
H           0.41690160788107   -1.32748065160659    2.15635515376154
H           0.68228936966949   -2.15088642204763    0.88109647896595
O           0.19927553432928   -2.18125261040947   -1.02382315666716
H           0.45006759582352   -3.01785638790082   -1.41732421336021
H           0.90117632148793   -1.52930937952927   -1.26591205205390
O          -0.02232147569806    1.54785106599913   -1.82313919368075
H          -0.03808587514374    1.81319675531818   -0.87882143855945
H           0.79451748180047    1.02752064086614   -1.92109262467397
H          -1.12817338840262    0.46938241767867   -1.65772464814073
O           2.16642435579590    0.43982582119998    0.84630062726824
H           1.36432261412745    0.98675475156630    0.96138473276013
H           1.96181883998640   -0.40721865931604    1.30245887737975
H           2.12485010658975    0.02322164519090   -0.62879123946147
N          -1.78243341730992   -0.28818319469019   -1.26354884546943
H          -2.56703783924984   -0.47428885359151   -1.87822368965257
H          -2.12425305787207    0.11532250543591   -0.32219540211753
H          -1.21856791991797   -1.13937392351722   -1.10687876835888
