    26
        -50.46173146  Gyration_radius:  2.49822456648 Dipole_moment: 7.266
 S          -1.50763799672148    1.74421796177691   -0.52463932323468
O          -1.50174785568865    1.28219521815621   -1.91662683649240
O          -1.75530006689911    0.61452611629350    0.37264984684455
O          -0.34776852889021    2.50815317110217   -0.17007538962432
O          -2.76804129293101    2.69239623396327   -0.39601963411903
H          -3.46676464047952    2.12009420540108   -0.69463782588843
O           0.92693945038963   -1.89644354513271    1.47117433777627
H           1.29956977239316   -2.39146819732979    2.20118069735853
O           2.24104343129456   -0.73358472438686   -0.53528852380832
H           3.14620351281065   -1.04513885086725   -0.57173637173920
H           1.80946276928183   -1.19664775630408    0.22339142279419
O           1.92398061979772    1.69637172265447    0.99566877617071
H           2.16587616276626    1.01689436441285    0.35315052004903
H           1.19810912508966    2.19510043876627    0.57841045991715
O           0.04758868483135    0.33402683045355    2.34269792914986
H           0.56510890288420   -1.03268151890025    1.87810218906406
H           0.77368783374533    0.93367301359502    2.05883124113805
H          -0.69110681073440    0.52851597588249    1.73260064251994
O          -1.34196881536223   -1.97878944576775   -0.07878497629134
H          -1.68232311313510   -1.09535914797450    0.17834124244801
H          -0.59375474102765   -1.45210016838540   -1.33421328245289
H          -0.62696795217602   -2.16354319072259    0.55534895203224
N          -0.06093457025226   -0.83692856601351   -2.03774992527886
H          -0.02729979732071   -1.25296926305843   -2.96176098266391
H           0.88846447950339   -0.68048247983069   -1.66215755893370
H          -0.61441855316995    0.08997160222960   -2.05785760674083
