    26
        -50.46173111  Gyration_radius:  2.49800606588 Dipole_moment: 7.253
 S           2.05197166463622    0.62283469105910    0.99417768091585
O           0.99961334847353   -0.19371192026054    1.60119991209811
O           2.75105831102198   -0.15136724323941   -0.03665633590658
O           1.58729204798370    1.89866191591353    0.53466351478232
O           3.12047808054165    0.87973997191861    2.13278568701998
H           3.39662300140661   -0.00740270548135    2.33708732042117
O          -2.45683420205873   -0.76130169916390    0.03990429828276
H          -3.40063340494275   -0.80479813699974    0.19541508289817
O          -1.20897523735892    0.27411269671111   -2.07571770747692
H          -1.72749392040763   -0.10658772625318   -1.32571302591064
H          -1.82516899093251    0.41543127324522   -2.79542320613237
O          -0.82541309232021    2.59615549931691   -0.39818186946644
H           0.09870380479249    2.56284237726189   -0.09059742279920
H          -0.87301545094647    1.96041556812358   -1.12381043654937
O          -1.43010502325820    0.94917206197166    1.62972293344015
H          -2.09469960304916   -0.08953879901346    0.71831266703609
H          -0.52630576041691    0.60226975781523    1.76585242811880
H          -1.31811574794269    1.71258837686995    1.01972996813019
O          -0.24844827093957   -2.30981333202975    0.56905046839995
H           0.46895035742331   -1.86532656842046   -0.73526318226004
H           0.21344319834700   -1.65320166653010    1.13285545274878
H          -1.15060949365291   -1.95866085640768    0.46730426544576
N           0.97515739136072   -1.29403135513048   -1.49334425362503
H           0.29796192416985   -0.61703391894834   -1.88076572721980
H           1.36401548739826   -1.88320602811338   -2.22115289825829
H           1.76054958067282   -0.77824227422611   -0.96143560411035
