    26
        -50.46173131  Gyration_radius:  2.49805006844 Dipole_moment: 7.259
 S           0.59410880479311    2.08340804198133   -0.94574824719243
O           0.18839548844137    1.83634637779222    0.43883223808288
O           1.94507517043920    1.55881279679994   -1.17009389214564
O          -0.36437449229338    1.62664689913418   -1.90876730148921
O           0.71666997290760    3.65404854676738   -1.09420727659028
H           1.39665236021832    3.85228389877630   -0.45916430670490
O          -1.16594038320773   -1.51367661198663    1.72201398765995
H          -1.82671615632977   -1.94818442494127    2.26180874640614
O          -0.20124590210940   -2.32726257537612   -0.62569059995989
H          -0.58521961677932   -2.08559776131820    0.25209087101534
H          -0.43459278563249   -3.24200832698882   -0.78824189945484
O          -2.06744738401897   -0.43649827576563   -1.76343649761836
H          -1.41686773472402   -1.13222358565535   -1.60329917025220
H          -1.54601518218846    0.34622431821220   -2.01869350162011
O           1.10372219864773   -0.01536549306903    2.12192961108998
H           1.78819744421981   -0.57477162525662    0.84436367251402
H           0.77783321984182    0.79728588414260    1.67947561374332
H           0.31427822370583   -0.57548588027287    2.22464950825214
O          -2.17837195666463    0.59711640331869    0.70850801411445
H          -1.61118962069465   -0.66565853766273    1.36816485370781
H          -1.40363039638595    1.18649866674951    0.61840418869088
H          -2.36414384854910    0.28314033808639   -0.20486552672135
N           2.04437371717945   -0.80371135141312   -0.17506085600130
H           2.03597186761455    0.15294217836794   -0.67560540080859
H           1.30368146011083   -1.41523048251428   -0.55515051085369
H           2.95679558155456   -1.23907941790691   -0.25221633791566
