    26
        -50.46173119  Gyration_radius:  2.49804142157 Dipole_moment: 7.254
 S          -0.17879350139652    0.24814964290732   -2.34379499059404
O           0.47079430030810   -0.85169903048186   -1.62894893260050
O          -1.63521147507871    0.13595128085789   -2.21317235404813
O           0.33021713443385    1.53890163075337   -1.98367628457297
O           0.13057488360399    0.01813272466209   -3.87855847286091
H          -0.27845509683512   -0.82736481160183   -4.02971191616874
O           1.06638100026343   -0.90476446333455    2.15914449197651
H           1.68482176065852   -1.10361181583282    2.86256870654702
O           1.34097181658385    2.37889187160735    0.35090703537534
H           0.57786271256050    2.17103218736071    0.90535652631556
H           1.02303082712044    2.28499845747474   -0.56548868415910
O          -0.64904502539119    1.13174126252936    2.03548487001709
H          -0.00430118289246    0.39108103023180    2.14493253200066
H          -0.74238431202692    1.54740333847900    2.89348579090496
O           2.36207948252474   -0.08977170639317    0.11848861280656
H           2.21351617213553    0.87987145541903    0.19017114498465
H           1.63599301880542   -0.61449420916177    1.36292238549503
H           1.79591428623550   -0.37587148137916   -0.62538416357869
O          -0.49212890619148   -2.30925332978836    0.38350308256886
H          -0.06505627169666   -1.96810478492095   -0.43104501854782
H           0.09905872017441   -2.03572323137865    1.10686811887692
H          -1.60690339953710   -1.22722988417367    0.39001470704102
N          -2.16547599477049   -0.31772144392488    0.25551464898175
H          -2.00453381585248   -0.05400073486343   -0.77910466938723
H          -1.75493477559316    0.39768799831853    0.87731015185577
H          -3.15399234798161   -0.44423195321570    0.44221267079647
