    26
        -50.46173131  Gyration_radius:  2.4980511018 Dipole_moment: 7.260
 S          -0.39908695791372    2.02122782571381   -1.15877260184400
O          -1.83861296534502    1.78863793305143   -1.00227950054263
O           0.27191298791335    1.87278474736480    0.13367674361807
O           0.19697831694136    1.23889810765448   -2.20157228741133
O          -0.25446480379430    3.54603883187951   -1.55639785173780
H          -0.71252310514796    3.97274296331434   -0.84017473797378
O           1.23655882744073   -1.49812241916704    1.68612767564770
H           1.91289907787655   -1.99502328634065    2.14708517433295
O          -0.39727477801375   -2.37386774365872   -0.22935028940181
H           0.22409383713415   -2.11197087336720    0.49282510034434
H          -0.38790405414720   -3.33089957388869   -0.27000912423668
O           1.46582972567102   -1.11560191300678   -2.04584182365705
H           1.05564785616050   -0.27622200550527   -2.32322524940662
H           0.75314751804426   -1.62104337281071   -1.63407184750022
O           2.35687396138420    0.18070740402687    0.12597920692602
H           1.70853698535595    0.91171753678162    0.09395980786382
H           1.73616685729110   -0.82532192565002    1.10267974177341
H           2.25624262439228   -0.28362326399582   -0.73522282944652
O          -0.54638350728323    0.51005997116784    2.27230452858916
H          -1.60956415143180   -0.04338810342588    1.28397895592580
H           0.12420634926189   -0.19464571353203    2.30786656368570
H          -0.18837719704560    1.16395637357466    1.63462600861238
N          -2.14077658244984   -0.34033596131835    0.39688854541859
H          -3.11037998761566   -0.56640400867906    0.58869873756683
H          -1.64169392091648   -1.14657350173752   -0.01293914426559
H          -2.07205292375666    0.51627197157225   -0.25683950288065
