    26
        -50.46173140  Gyration_radius:  2.49830145161 Dipole_moment: 7.275
 S          -1.02070471741769   -0.67432994620578    2.02379198887295
O          -2.32344648924564   -0.56502457782094    1.35904512993148
O          -0.10640669828498   -1.46458638955617    1.19780649601959
O          -0.47530922604932    0.58861380068120    2.42643003709461
O          -1.28026791860157   -1.52692146746797    3.33136437112909
H          -1.68082175105310   -2.31039422917121    2.96983873849411
O           1.81516616404493   -0.08833000136515   -1.82091658896914
H           2.65435649807866   -0.05689832112197   -2.28089977851350
O           1.25566071448042    2.17061092635041    1.13058248366243
H           0.75219777362429    2.27589008813667    0.31299356741967
H           0.63717823171690    1.75684209800870    1.75993031371836
O           0.07247944345957    1.90153714765449   -1.49215109743074
H           0.27783231729362    2.63119436981554   -2.07789788516333
H           0.74911002145093    1.20114084856731   -1.65923389247348
O           2.24838227762901   -0.28031039529800    0.68574220599644
H           2.04512266633692   -0.19513124898342   -0.83181146472474
H           2.08788971330416    0.64906720344681    0.96475729766076
H           1.46723169288380   -0.77540161872778    1.00262915930515
O          -0.20611543268902   -1.90951261501230   -1.42767881694651
H           0.59137170800212   -1.43648396097985   -1.72390272742373
H          -0.11833817576905   -1.96097099137577   -0.45204505209551
H          -1.29564627064334   -0.80239636567307   -1.38567232712711
N          -1.90882396170338    0.03412020396856   -1.10060426561588
H          -2.75732181433000    0.09280864114928   -1.65251367389912
H          -1.33818793271824    0.88959016781503   -1.19798444263453
H          -2.14258881366824   -0.14472335683274   -0.06159977627948
