    26
        -50.46173125  Gyration_radius:  2.49806925485 Dipole_moment: 7.253
 S          -1.20790874903432    1.53890102636404    1.32702330519289
O          -0.31528556345586    1.85915881006739    0.21195147240188
O          -2.45148071784521    0.95250043441882    0.81668813373408
O          -0.58153669602687    0.75271203988890    2.34892563222766
O          -1.62230207060906    2.92413258238381    1.97018992104554
H          -2.06272792004263    3.34741318632608    1.24095756604280
O           1.91380400354398   -0.70346876544789   -1.56891392559137
H           2.78052497305477   -0.88377501255535   -1.93374325915813
O           0.34159080402637   -2.38339599986403   -0.22319649327086
H           0.96078404790335   -1.81264669974139   -0.74007973558407
H           0.64956839268248   -3.28534056686427   -0.32023779331545
O           1.37268821156175   -1.06740585537820    2.13308847032117
H           0.67782079315469   -0.45368922996706    2.43348057280900
H           0.93686766236827   -1.65194009763806    1.49951006401602
O          -0.28663771197518    0.80381720497837   -2.23453858784040
H           0.56833269550259    0.33866082927855   -2.22349499231923
H          -1.27103304774727   -0.21998149746189   -1.60526201997273
H          -0.26719555733000    1.38200760264766   -1.44221816778064
O           2.16388147711939    0.85278448785356    0.43685228493883
H           2.06833434383898   -0.05671335773361   -0.79399104429544
H           1.32243782789605    1.35048246300462    0.43049092824316
H           2.07024760154433    0.20816712867576    1.17385506155760
N          -1.82330401897332   -0.83303333445383   -0.91495903398271
H          -2.14079291751524   -0.14865155675108   -0.14253302683413
H          -1.17225069815666   -1.53545567063252   -0.52817216476472
H          -2.62442716539061   -1.27524013142689   -1.35167314783146
