    26
        -50.46116221  Gyration_radius:  2.44493194265 Dipole_moment: 5.334
 S           0.12749690321501    1.92968033155032   -0.86014915000121
O          -0.37523179550601    0.80500268129251   -1.63922548968259
O          -0.95535885374596    2.55208548940571   -0.09724077694433
O           1.25899501935559    1.58075769413834   -0.04101326342742
O           0.61904877883968    3.01520317484671   -1.89572421583667
H          -0.17016999322884    3.20488754833831   -2.39329848362719
O          -0.37557986679388   -2.43701932588632    0.28808861179034
H          -0.02836380098127   -3.24082434631873    0.67628204732526
O           1.42436950178975   -1.24414244231340   -1.53369967474126
H           0.91487816055715   -0.42631435218957   -1.66270264481029
H           0.78751203730511   -1.87895646188062   -1.17684460255895
O           3.01582954548258   -0.97602455534062    0.65707673104891
H           2.56862055091313   -1.13987229724429   -0.20215253594855
H           3.33202009535542   -0.07203275227228    0.58947254238651
O           0.63990114405411   -0.34115843859028    1.63064074252949
H           1.53434376079854   -0.74584319344940    1.65761421216437
H           0.81725262523544    0.42212164486523    1.03100369230813
H          -0.00187013011008   -1.68705570735507    0.80963038105172
O          -2.29715403463840   -0.79680129056681   -0.73287075312390
H          -2.21499595513979   -0.00359819125715    0.58302113051592
H          -1.68517202088659   -0.22676598195772   -1.24787331612062
H          -1.78697677644718   -1.60088444610998   -0.54286263669502
N          -1.89204751437365    0.65841292254543    1.37564026192833
H          -1.07261109563690    0.23971452801812    1.83655086174420
H          -2.62928915658145    0.87337316401673    2.03777793801240
H          -1.55544710883986    1.53605459373991    0.85285841073442
