    26
        -50.46116259  Gyration_radius:  2.44600565809 Dipole_moment: 5.288
 S          -1.40039124637346    0.42967658833337   -1.53127094336106
O          -1.74953676048209   -0.47787276774553   -0.44544448655697
O          -1.67927431352293    1.81584139205892   -1.15315180269921
O          -0.05475645991394    0.24021071957613   -2.00685104519703
O          -2.37044656510122    0.09612169942616   -2.73143951179414
H          -3.23123663092521    0.25441715744203   -2.35680692615465
O           1.06572431276281   -0.97383278683341    2.01587717567854
H           1.88003748074392   -1.33091680192637    2.37200047124548
O           0.16172991265008   -2.41476651194191   -0.23892930551116
H          -0.55388487686252   -1.80098388548337   -0.47617505486378
H           0.36009210232131   -2.21746511225945    0.68720712291961
O           2.49851242462624   -1.56766903309001   -1.34387527201878
H           1.69806310874004   -2.01629485376091   -0.99243139867774
H           2.24081901938589   -1.27764455037876   -2.22200643496976
O           1.67829908377972    0.60287021911889   -0.07387845906811
H           2.34261426955817   -0.03986367670653   -0.40593914140984
H           1.00297814948485    0.53488001099096   -0.79006848909128
H           1.32005282921940   -0.38651401737065    1.26456067283560
O          -1.40257219171675    0.17724042647542    2.11048484149010
H          -0.73646601815118    1.46649284493060    1.59765752526597
H          -1.70484728543419   -0.15083299810523    1.23547730633828
H          -0.64772026818371   -0.38829542404297    2.34103648857684
N          -0.27164390281002    2.21228817757543    0.96658483974882
H          -0.85786559164950    2.18370385379023    0.06523042029571
H           0.67728446027715    1.89277195564428    0.72839075411455
H          -0.26556506238621    3.13643737426479    1.38376066290007
