    26
        -50.46116202  Gyration_radius:  2.44502091314 Dipole_moment: 5.326
 S          -0.56180166558759    2.01127706261030   -0.34639580852738
O          -1.03312990034279    2.31471981759896    1.00556668234975
O           0.84564222389195    1.63296046442755   -0.32574343917439
O          -1.38992690003443    1.04705368069141   -1.02288668818664
O          -0.65690714825489    3.36022490186509   -1.16097667620556
H          -0.09692971077723    3.94747391494603   -0.66298369157265
O           1.36262074255572   -2.05625301498537    0.27867988957654
H           1.41743786627833   -2.99125206751080    0.07825179585702
O           1.24268984967548   -0.45151742303719   -2.04300123190145
H           1.61204227178184   -1.03304417003287   -1.36377555294102
H           1.06220384866199    0.38550626336780   -1.58279683595706
O          -1.10082657443628   -1.76357303786512   -2.48264940562486
H          -1.70488143526176   -1.05851357138273   -2.72717346213998
H          -0.21821387225651   -1.33243073109277   -2.47296791632219
O           1.89808272805553    0.22363967917328    1.67131373509706
H           1.68860295866613    0.84545622292759    0.94045312563579
H           0.47086029783237    0.12469711920099    2.23742268162844
H           2.02752871675195   -0.63539607693660    1.23741574943230
O          -1.21304158447048   -1.30505117888921    0.12030313964312
H          -1.30145669903730   -0.39259193339290   -0.24481669255589
H          -1.35399428426446   -1.82887319430484   -0.69828479402787
H           0.40735154989517   -1.81252203041184    0.23102171591277
N          -0.60497266133807    0.15926310315848    2.34814509476605
H          -1.01526092199154   -0.59952153242915    1.78686227760430
H          -0.87850076263478    1.08985800100505    1.88323588241253
H          -0.90521894338650    0.11840973123975    3.31578041517168
