    26
        -50.46116266  Gyration_radius:  2.44635133847 Dipole_moment: 5.285
 S           0.68905073610123    0.97125605569954   -1.75337558049711
O          -0.73323911795019    0.71876818641961   -1.55920002216430
O           1.07621162304208    2.23899319579220   -1.13261108128325
O           1.51440519277738   -0.13133870255953   -1.33394770278220
O           0.91031136308644    1.15499787792060   -3.30573635352130
H           0.35943605820545    1.90407988701945   -3.51006981759882
O          -1.48242400370041   -1.06728648417510    1.67676353461988
H          -1.56959936042475   -1.80080675156326    2.28649649737829
O           1.17109386732857   -3.02408965798254   -0.00298060443084
H           1.83429701759269   -2.79657308582203   -0.65858394412789
H           0.31940129708458   -2.76770537946599   -0.42070329159673
O          -1.11180337701952   -1.92316673576433   -0.98949948297395
H          -1.56214184421617   -1.74900239094892   -0.15112156074486
H          -0.92034674702835   -1.04340887414353   -1.35630667918604
O          -2.00011939944238    1.41378392060910    0.67547127160117
H          -2.14277643576244    0.54277099588483    1.08021635245185
H          -0.62336678482435    1.83630074549444    1.21846911987354
H          -1.70616842368118    1.21997277696508   -0.24140413920158
O           1.13405916362928   -0.67017077885092    1.20292472921330
H           1.30117692456187   -1.63551718622965    1.13284726137962
H           1.29732971661213   -0.40084851640527    0.26779932169857
H          -0.51516922547116   -0.93178210128732    1.53486521711282
N           0.44219098724102    1.97089357454656    1.34897400845022
H           0.67115230164735    2.71765176058024    1.99556078478780
H           0.79583069601166    2.17975082607430    0.35487704289430
H           0.85120778447787    1.07247684222256    1.64027511866702
