    26
        -50.46272400  Gyration_radius:  2.48080622387 Dipole_moment: 6.109
 S          -0.14816001654780    2.25599979350863   -0.59401121474888
O          -0.15202995792506    2.08211524865125    0.83763827192118
O           1.12940226986294    2.56028166751646   -1.18546860813429
O          -0.82451156253818    1.11786819756760   -1.24660516601741
O          -1.07247654064285    3.51583525486501   -0.91129000315030
H          -0.56673626902967    3.94212973598407   -1.59527919354311
O           1.43620112375839   -1.25341932123951    1.40131913944729
H           2.24993211355623   -1.56425391018995    1.80049518643892
O          -0.29509897018089   -2.65923282760103   -0.08067831798974
H           0.38139759215307   -2.21166660798818    0.48022743041520
H          -0.12554948609715   -3.60018660265467   -0.02669629406841
O           0.50782674536211   -1.00690390583438   -2.29700129295652
H           0.15706789724262   -1.68833739357576   -1.70857306801013
H          -0.01968402919604   -0.20742968845887   -2.12429781974895
O           2.20448579609798    0.20249894310236   -0.57454101411936
H           1.81785780790835   -0.28301125486719   -1.33283367554709
H           1.93770711875440    1.12997037150249   -0.71704494733518
H           1.72442944745671   -0.60842728110050    0.68109908068309
O          -0.61092173384411    0.15469376872025    2.55632214242484
H          -0.41555148123188    1.02530263136977    2.15090684019465
H          -1.51034496457081   -0.26747525001718    1.38347157856703
H           0.18762301165751   -0.37297433809787    2.37355657213538
N          -1.93318796906437   -0.52007874729312    0.42100468955429
H          -2.94605131245422   -0.48995841160247    0.42643797320808
H          -1.57943138324228   -1.45091376976429    0.15467410470022
H          -1.53419524725309    0.19757370750787   -0.27283235430798
