    26
        -50.46301450  Gyration_radius:  2.49220757669 Dipole_moment: 5.495
 S          -0.70907123299879    0.89510324909688   -0.20772627457100
O           0.16117331856660    0.58460500890697   -1.35263836440196
O          -1.82638328867104   -0.01810565004443   -0.10258648641526
O           0.18509681029312    0.70029211486189    1.06498274235540
O          -1.06939508724301    2.30310065086789   -0.18949223919615
H           0.24796588593748    2.96692387624352   -0.63226775805023
H           0.41229149447463   -0.32285177886107    1.18252595798358
O           0.67192039980858   -1.73551233116463    1.27724672798347
H          -0.20808099977092   -2.07662022289762    1.53070082601147
O          -1.99854461319705   -2.01653148017951    1.64881174240925
H          -2.03591706047162   -1.24483671174230    1.04392992052136
H          -2.43588495593353   -1.74694425667874    2.45721386177599
O           2.50740142031936    2.08593415489864    1.15852082321819
H           1.66718312387845    1.62109775421881    1.34202048343976
H           3.19864486488452    1.42539041572401    1.23608463213546
O          -1.99981468074448   -2.47270419967691   -1.33129489774434
H          -2.07249454932518   -1.53096141974141   -1.10303523779030
H          -2.24180342832014   -2.94525777644587   -0.52944004403057
O           0.68178899903629   -2.05824245378181   -1.30567517308675
H          -0.20720039205907   -2.42561797008953   -1.48101532512833
H           0.58549878409360   -1.10589240812672   -1.48719478070749
H           0.79148918098150   -1.98945485246224    0.31656359442465
N           1.23162822315993    2.86198859434301   -1.05686650531463
H           1.92076438140527    2.77367070247764   -0.27758661171054
H           1.47516658543696    3.57482512738624   -1.73563437235581
H           1.06657682641200    1.89660187330382   -1.46614724169632
