    26
        -50.45090185  Gyration_radius:  2.44455324017 Dipole_moment: 8.450
 S           1.66410509334463   -1.03367434878280   -1.35496635549772
O           1.49693456755162    0.42859974617110   -1.32093447866596
O           2.97128217422636   -1.47719223694601   -0.99721226221352
O           0.65119404154208   -1.55569927821195   -0.20687453364803
O           1.06518509173934   -1.59088634121869   -2.56241306106528
H          -0.21407677043673   -0.79565512097283   -2.54453144139399
H           0.96868247999816   -1.17590203083352    0.64092688295515
O           1.34084402040548   -0.32316728539429    2.05108559511459
H           2.22287682507886   -0.62916543154062    2.26858420626225
O          -2.06850428617915   -1.36073429531309   -0.20949178168467
H          -1.22521948571953   -1.84092771356957   -0.21526311411283
H          -2.07933307281120   -0.90810685301402    0.64620474433226
O          -1.38425834692036   -0.05345777858902    2.18232387711811
H          -0.43006529484099   -0.25031647632334    2.20689939125799
H          -1.69234795115530   -0.08194855920773    3.08948643589280
O          -1.26496289999804    1.93811427707933    0.24569562295729
H          -1.89676693052707    2.63006257482637    0.44452250061131
H          -1.38952955634846    1.24277019654728    0.91324794102602
O           1.48163813531527    1.92785792908814    0.80606618966635
H           1.45366633545704    0.59921621365833    1.65302509250038
H           1.70864819035062    1.47356653129960   -0.03672903101039
H           0.56017537577668    2.19691604952029    0.66534036754054
N          -0.88076020708891   -0.00991988526104   -2.20109358184463
H          -1.37693981653472    0.46502859213108   -2.94651268384380
H          -0.15776042417647    0.59230619071414   -1.74388262116992
H          -1.52470726804968   -0.40768468586139   -1.47350390110959
