    26
        -50.47076131  Gyration_radius:  2.39817528472 Dipole_moment: 0.842
 S          -1.24448234916193    1.26538231325256   -0.29183413304601
O           0.07953354060078    1.41935049428478   -0.89104501084633
O          -1.94989407325303    0.11084679637550   -0.79264084445453
O          -1.16653843292066    1.31604842302423    1.15878934160391
O          -2.07679397803896    2.52744262791633   -0.75078053913357
H          -1.52579854778892    3.26067197275391   -0.49668329901993
H          -0.65373642159507   -0.05803668105096    1.87150163605250
O          -0.31420710544406   -0.89549103456228    2.27282200485282
H          -0.75165869362235   -0.97973297550370    3.12138801366698
O          -0.61123504100624   -0.70217161404408   -3.01729668237892
H          -1.14840120486004   -0.36312143411248   -2.28109985877217
H          -1.21416877216327   -0.81263518995393   -3.75339485727138
O           2.32033326285781   -0.60507511889244    1.38648163652757
H           2.27453491785421    0.37596579394882    1.40913564392641
H           1.53999006435172   -0.89345269576079    1.88545737869000
O           1.54848342502910    1.96945064035743    1.26228742449657
H           1.15119561440809    1.87675584171061    0.37580953849862
H           0.78855013851160    1.98905416079027    1.85302157532014
O          -0.89233653462302   -2.26272286300127   -0.03620456789679
H          -1.50787953390359   -1.58001739172728   -0.35525097186630
H           0.43513657027767   -1.64626215565662   -0.75427244772668
H          -0.72542142483591   -2.03364986553611    0.89391482434623
N           1.24058968031737   -0.99581036160359   -0.98173585431358
H           1.72114992519591   -1.30527865843222   -1.81951325699063
H           1.85894275518320   -0.92501617530826   -0.11964801540452
H           0.82411221863280   -0.05249482928493   -1.14920866881747
