    26
        -50.46081188  Gyration_radius:  2.41713079088 Dipole_moment: 6.010
 S           0.07809123976019   -0.19767808584554   -1.81985691668037
O           1.28497204428226    0.59703599987165   -1.81004848462755
O           0.30929061938484   -1.57845300380179   -1.38570705512501
O          -1.02046452351324    0.37465426222361   -1.07722696644966
O          -0.36425919983671   -0.27471373063219   -3.33919859332662
H           0.40675249293314    0.05794326635193   -3.78750619123088
H          -2.32006430272627    1.25261076080366    0.00621448805475
O          -2.43111654793041    1.83047068956947    0.77437540077123
H          -1.86265331449656    2.59014854246015    0.56788032764886
O           1.58866965890623    0.63953288152081    0.83000132482335
H           1.92837261110204   -0.25475378789994    0.98729253421453
H           1.54675710615454    0.72383160321356   -0.14188397406019
O          -0.16408151695807    2.91083659628803   -0.35047167430580
H          -0.33143628863164    2.06579686594749   -0.79560674691186
H           0.70863910952239    2.82957055876644    0.04092797192053
O           2.05722039749588   -2.10405603901769    0.55335083233997
H           2.93328447931107   -2.36001784569915    0.26202778980347
H           1.52640957509521   -1.96264019100771   -0.25866605719948
O          -0.71649503480317    0.39807369039188    2.15161142751223
H           0.14284315454921    0.68673310732221    1.76677303683348
H          -1.41422692041218    0.98094377651537    1.74284110304284
H          -0.82939465283400   -0.85664114458742    1.54003417479819
N          -0.79671124020307   -1.86900418743607    1.01603388493749
H          -1.67884899946368   -2.36242209777347    1.09782876743492
H          -0.03191373085600   -2.40855652321485    1.42062400145073
H          -0.54963622537164   -1.70924595415580    0.00835556420630
