    26
        -50.45084379  Gyration_radius:  2.47622630217 Dipole_moment: 3.087
 S           0.05059827632842    0.49357480706479    2.10910181303198
O          -0.95818120299197   -0.10756030657093    1.25418696108614
O          -0.30947489882356    1.70680192536611    2.74552114293913
O           0.48063069200737   -0.56177855585510    3.15097804334934
O           1.31487498236602    0.74152720260862    1.26528512759955
H           1.55543934850812   -0.04981947653286    0.67424355800412
H           0.44607442823482   -1.45523628448056    2.69092558599086
O           1.88973462041989   -1.27395483957984   -0.19085212164339
H           2.82194448282020   -1.24847140791545   -0.41479114775799
O          -1.06551136710207    2.38104600935484    0.11751052404923
H          -0.79844202327716    2.84566215967059    0.91676696715639
H          -1.23529498121759    1.47658605041980    0.41444745668977
O           0.75373157331164    2.06359626306142   -1.87678894208900
H           0.53601480711755    2.72769358303920   -2.53230609219921
H           0.14234596297949    2.20913326543843   -1.12604278300085
O           0.21492961149513   -2.54619554995256    1.53980001227421
H          -0.55664409768893   -2.06503104476988    1.21154519761352
H           0.91722349465864   -2.37803494648412    0.88786999031388
O           0.63632830689180   -0.60054704506621   -2.27677561868757
H          -0.31988701222860   -0.74515853183193   -2.07424866461979
H           0.75561212651872    0.37121432588240   -2.24285706694984
H           1.38451669189939   -1.05277205765733   -1.06705123533651
N          -1.93107375711345   -0.76499536655193   -1.43738546675132
H          -2.47740398832551    0.01303531617627   -1.78580801387160
H          -1.74320845878372   -0.58383403541849   -0.45520011812936
H          -2.50487761793886   -1.59648145942305   -1.49807509904429
