    26
        -50.47444119  Gyration_radius:  2.41403827325 Dipole_moment: 1.595
 S           1.66863879898879    0.70080332530999    0.77797201098808
O           1.35945960855656    1.71744269503514   -0.22340384828545
O           0.64152683832704    0.56930453893466    1.78306472138835
O           2.03388944068825   -0.56494876320772    0.15861513387265
O           2.96109045082003    1.22102929883951    1.52866028836389
H           3.54473939592674    1.41443220912861    0.80311629350909
H           0.93029842521621   -1.73985050101521    0.05880125485327
O           0.24355709160905   -2.44672568629561   -0.04916078827245
H           0.71663572249189   -3.27988874778434   -0.03487898664350
O          -1.08517606688358   -0.98911101525175   -1.99442510039910
H          -0.72097014148593   -1.69216697638172   -1.43110540650943
H          -0.29383512317348   -0.49440883434778   -2.31164989126945
O           1.26756963903891    0.19661949978684   -2.38992991866999
H           1.82906384186647   -0.46444698849315   -1.97068646050394
H           1.25874677853765    0.92579587865924   -1.74117857140247
O          -0.97976019096160    2.46980915487077    0.67554746757401
H          -0.12222749945319    2.35720935683694    0.21083873819808
H          -0.77446124039870    2.18202317669091    1.57284108787319
O          -1.35087495343363   -1.20329918162509    1.79527405344089
H          -2.11237915513031   -0.31454734300289    0.71408665034512
H          -0.91748763492792   -1.88288432518908    1.25093460640146
H          -0.62853515403715   -0.57784922757560    2.00615879949646
N          -2.34441823389369    0.32700505825375   -0.10443148253442
H          -1.89848587307037   -0.12238064390319   -0.96453036742813
H          -1.88178214172334    1.25570401684955    0.10504911971186
H          -3.34482263355461    0.43533002496145   -0.22557939418408
