    26
        -50.47076134  Gyration_radius:  2.3982482263 Dipole_moment: 0.847
 S          -0.52030746760502    1.70007181059745   -0.27154389063476
O           0.89896300074874    1.41457558406132   -0.07177446118983
O          -1.04587601750449    1.09163794513312   -1.46941278548447
O          -1.28566393056494    1.38789798155089    0.92416608824176
O          -0.62175174125056    3.26212864739128   -0.48596307474681
H          -0.17154213792412    3.61939985339788    0.27265518184758
H          -1.60667832666921   -0.19526368380581    1.14669749489347
O          -1.76212831234073   -1.16413634328527    1.26833813466182
H          -2.61456722642328   -1.24434754090337    1.69895784452425
O           0.93199319641187    0.80286752639409    2.52093767445450
H           1.11140493990640    1.08552426017986    1.60432343179412
H          -0.00075176902337    1.00632712860112    2.64513167223844
O           0.88217869334806   -1.81443500135834    1.89828753985096
H          -0.08338032104235   -1.85295948250697    1.81313143841322
H           1.05567620363179   -0.93683797262098    2.30413524897250
O           1.10509258459284    0.31126245929704   -2.94206495002417
H           1.03611984270490    0.63590381028004   -3.84056758241802
H           0.33484162912273    0.66982929875321   -2.46921096688803
O          -1.19326508296760   -1.60928480306634   -1.37975793710713
H          -1.54721323377788   -1.68485260365151   -0.47724535813071
H          -1.33663641328297   -0.67937528036550   -1.62769238986989
H           0.40238408323547   -1.46306795157180   -1.07947336933641
N           1.31324611205605   -1.17732041024830   -0.61880265187565
H           2.10336397622218   -1.46371952222149   -1.18650871200143
H           1.31706123918338   -1.56663655018893    0.37058631181829
H           1.29743647920675   -0.13518912982456   -0.54732995200572
