    26
        -50.46837079  Gyration_radius:  2.48020736691 Dipole_moment: 2.829
 S          -1.98564542903334   -0.98499813564457    0.38610167414917
O          -1.35222647848407   -1.64689623652215   -0.73101370099358
O          -1.01186535055431   -0.62518859473979    1.41810671908619
O          -2.83758086438257    0.11861769061447   -0.00595856186525
O          -2.94037794340512   -2.04405948350799    1.08737226297317
H          -3.69704402294495   -2.02056980791975    0.51169776190313
H          -1.85693786018770    1.11898664243481   -0.78105047579721
O          -1.21908017090497    1.76159177456179   -1.18246484294267
H          -1.71419148776717    2.25058340150025   -1.84196781434726
O           2.28735181315777    1.29492992114724    0.80958095103391
H           1.36607095603938    1.60833989416243    1.05520369944079
H           2.90027365295029    1.88314983795756    1.25087454072522
O           1.14413113787644   -1.80523005413739   -1.62548493865522
H           0.17707658246155   -1.89381366594592   -1.51139081829718
H           1.43993151263441   -1.60989392409308   -0.16746043137715
O          -0.17171311887230    1.93044706780754    1.35150444117410
H          -0.55172520261808    2.17510880847697    0.49257574445426
H          -0.56907241798320    1.06056755404653    1.54932074144248
O           1.31411048238968    0.84740693618826   -1.83915672718199
H           0.40396114288308    1.15865449242234   -1.69654742087320
H           1.80555110318504    1.10296972447499   -1.04680268903108
H           1.27184027836904   -0.87837987571199   -1.93494538146949
N           1.46998861431969   -1.29715940898722    0.88011084971781
H           1.88898219120555   -1.99827075681070    1.47963720856412
H           0.46377954746424   -1.11513217707025    1.15443129869645
H           1.97441135221692   -0.39176162471679    0.93772592947761
