    26
        -50.46837080  Gyration_radius:  2.48025597352 Dipole_moment: 2.830
 S           1.30830005012861    1.77330045622908   -0.45464433695720
O           1.97872610411971    0.94367620729169    0.51978419179620
O           0.61025430041446    0.96567318357818   -1.45631653763928
O           0.47276042436855    2.79708231681870    0.13807418918962
O           2.42937460398166    2.54667917077041   -1.27321142635463
H           2.64360901293852    3.25201160311997   -0.67229542101062
H          -0.58652486527877    1.98153248238668    1.01872553981607
O          -1.28252953188631    1.45675986995648    1.48904068897895
H          -1.55853458642682    1.99071002277364    2.23598169920529
O          -2.02721501362394    0.64619837968800   -1.02755831439247
H          -1.13181380760953    0.87625585155874   -1.34220767152976
H          -2.06156314498277    1.00513578498027   -0.12642592542767
O          -1.84241961883225   -1.92214970365805   -0.68948085576360
H          -1.99063005594815   -0.94202040030705   -0.84641601552494
H          -2.60177771319194   -2.37347289973041   -1.05829162454944
O           1.74457024703831   -1.59140019880822    1.27877743736169
H           2.01382115189421   -0.65554469174122    1.19105152123385
H           1.28458403048780   -1.73861154192021   -0.14203921773378
O          -0.82713576143784   -1.24713449461390    1.89444258417319
H          -0.96073145495922   -0.28556269822322    1.83820065092154
H          -1.29001463064418   -1.62090039775695    1.13241232736018
H           0.86570232376308   -1.55447513971026    1.72297857068402
N           0.82500107873361   -1.63183511326305   -1.12862569786470
H           0.81724123232777   -0.59260984655486   -1.33076032440126
H          -0.16372595447870   -1.94146607721998   -1.06507927436060
H           1.33067157908112   -2.13783213566041   -1.84611675720676
