    26
        -50.45286646  Gyration_radius:  2.4777820102 Dipole_moment: 6.976
 S          -0.99897177346214   -0.72731965166675   -1.57221375169529
O          -0.86570106906388    0.72262978214028   -1.27485796690008
O          -1.71933080953950   -0.99257945422362   -2.76729269573300
O           0.34951478590220   -1.33400722531422   -1.52818833622230
O          -1.79187160760943   -1.33092795981119   -0.36907732232355
H          -1.27722495412429   -1.15489576667891    0.46924834577953
H           1.36260196592857   -0.20355079355344   -1.99604044131026
O          -0.73233630190712   -0.73697260113651    1.93852120497268
H          -1.61836024330369   -0.75376478811016    2.33456740614680
O           1.68929514250802   -1.34433468145797    0.76130039698027
H           1.22684909577840   -1.49977003025322   -0.09141169638146
H           0.99193862919179   -1.36608527783357    1.43086671707645
O           2.55046409415335    1.08462010376589    0.46603232022799
H           3.39687697386503    1.19901831951760    0.89896840900740
H           2.26849019855417    0.13573116354974    0.64609578909346
O          -3.46886288063132   -0.49350939341838    1.82578952937293
H          -3.68943335084760    0.40971822264098    1.58841574491722
H          -3.36782301345090   -0.97697604466833    0.99703993082487
O          -0.16386386388761    1.69166490628032    1.10544715839409
H           0.79599154257026    1.72554906881428    0.99384105511152
H          -0.52762551865216    1.46241594854968    0.22506613001911
H          -0.52679302780051    0.22257600932406    1.79122613750000
N           1.54512431414480    0.84520073519061   -2.00654898327359
H           1.91723570643841    1.19722561718968   -2.88063848512910
H           2.12522540623756    1.09168142683747   -1.17565503683909
H           0.52859054900300    1.12666237412680   -1.81050154952116
