    26
        -50.45039460  Gyration_radius:  2.44969979171 Dipole_moment: 4.505
 S          -0.60490499118511   -1.91040409046872   -0.44439141180189
O          -1.20176300647897   -0.61537759181153   -0.20236899916931
O          -1.13292929251122   -2.66371103788637   -1.52078447251544
O           0.91519935427483   -1.72951420728345   -0.68826208034226
O          -0.66389920374071   -2.70348700332416    0.87973739784020
H          -0.96243821015940   -2.07413694182044    1.60900819378852
H           1.29556510493931   -0.93507016950061   -0.20688197049319
O           1.97931594277113    0.35437757350910    0.38276198005395
H           2.92646613490610    0.29902738516283    0.24471062627821
O           0.46187239753303    0.99623572941637    2.52165996246398
H           1.06589271979890    0.75381416145391    1.79077650685700
H           1.00404484904731    1.18092172463533    3.29003225479795
O          -1.47689296767193   -0.90717229802639    2.52731151082109
H          -0.76899696097359   -0.23602138796825    2.61703844066162
H          -2.11791652503816   -0.52060768652882    1.92235584684493
O          -1.08733840397971    2.06073107016982    0.33812451698208
H          -0.69300488736059    1.99728362057881    1.21606045644424
H          -1.28325699317305    1.14640545528791    0.07922926620934
O           1.00595222797702    1.91344091604121   -1.34161673072895
H           0.64852784939768    1.29195125212606   -2.02242046420495
H           0.21818902357264    2.21470009933254   -0.83889977002976
H           1.62474013297896    1.02974381550847   -0.32641564666292
N          -0.14021703365513   -0.00887005385884   -2.87734916679404
H          -0.62217491637349    0.16313174660329   -3.75171968483244
H          -0.83648986355878   -0.27332173717644   -2.18877976004193
H           0.44645750865841   -0.82407034417753   -3.00891683242422
