    26
        -50.44970678  Gyration_radius:  2.44921129396 Dipole_moment: 6.198
 S           1.34509581373261    1.13617380108432   -0.34707935410290
O          -0.04505553154545    1.19477711748393   -0.71458845957468
O           2.30245336839742    1.41308272167703   -1.35284935578948
O           1.56042941964793    2.09637039345875    0.85442422812953
O           1.65201017661737   -0.25933846889460    0.24869824333031
H           0.89907535609049   -0.59000830147066    0.83222454175683
H           0.79172045107825    1.98603998148620    1.47074738044280
O          -0.21620193363226   -1.05969440242329    1.80414104583485
H          -0.00181523854811   -1.90679926688376    2.19816839595738
O          -2.49766702065473    1.28696069431594    0.50328297432477
H          -2.21042730003931    1.63587116786347    1.35171010173279
H          -1.73157315311451    1.38884405025993   -0.08322059817838
O          -0.89280002287773   -1.07591889598351   -2.00096838850897
H          -0.00629711150336   -1.38958789372406   -2.27017887304936
H          -0.74277646897050   -0.15093097600712   -1.75922612221506
O          -0.37951673595290    1.51120201357327    2.52614739828892
H          -0.09784146577524    1.65687105814318    3.43174228337734
H          -0.40614633852634    0.54136016023949    2.38238168179385
O          -2.18423316154203   -1.39027856801125    0.29403580852545
H          -1.78964055323854   -1.44526169177802   -0.60959671602280
H          -1.04923559383126   -1.23254979260575    1.18475981213692
H          -2.57225066621648   -0.49134706028624    0.33915958393032
N           1.79434286414372   -1.26711940982583   -2.55118734711972
H           2.12634258645168   -1.42018594309279   -3.49621263352021
H           2.33763112683280   -1.86108460129340   -1.93665219251398
H           2.01437712313251   -0.30744788720445   -2.29986342873478
