    26
        -50.45127724  Gyration_radius:  2.48036136637 Dipole_moment: 5.947
 S           1.48825337557300   -0.72738063287360    0.83894792426254
O           0.97896256875578    0.59753425019919    0.58066160246303
O           1.47190560880264   -1.12482972229681    2.20847022751487
O           0.66834913064527   -1.73068257586878   -0.03520781231291
O           2.87129033405686   -0.88097870755403    0.23112525058832
H           2.75027846609682   -0.70148584787731   -0.82417462976880
H          -0.30833653720343   -1.68914673031045    0.20214113749742
O          -1.83792212246648   -1.53205584917810    0.48754014986073
H          -2.36112764361155   -2.23537831729560    0.09897648108655
O           0.23714294752243    1.32893765542088   -1.78409857157041
H           0.49106465861619    1.09498563890368   -0.85460320646747
H           0.21522867944827    2.28804081205983   -1.80385891251995
O          -0.99091160522966   -0.01750978773433    2.73832613720988
H          -0.06523245686722   -0.30154825140426    2.75229786854790
H          -1.45365540737289   -0.67177792389075    2.20050476011573
O          -1.77794701541931    2.15622946807921    1.33579598722184
H          -1.30038199826989    1.45916336508187    1.83696345070973
H          -2.46907140725490    2.46661566849174    1.92315897638656
O          -2.26940420416720    0.64256248327824   -0.80853240391076
H          -2.18956943812641    1.28292306668185   -0.06426163030774
H          -1.47498482560617    0.80055818932300   -1.34652193847379
H          -2.05936321728595   -0.68851545364328   -0.03304091716295
N           2.42575232929635   -0.48553286747598   -2.22875971083283
H           1.66517521831898    0.19556628043907   -2.26760044556339
H           2.09120441632542   -1.36600597474780   -2.59674903070037
H           3.20330014543817   -0.16028822579239   -2.78750073386360
