    26
        -50.45137701  Gyration_radius:  2.44187408002 Dipole_moment: 3.695
 S           0.77504323081682   -0.88824755586845   -1.52789843525370
O          -0.29853844366051   -0.78532664735632   -2.47469552758206
O           2.02869180863939   -1.38176992928499   -1.97989388964267
O           1.00348873170513    0.50692984817105   -0.89328917473067
O           0.31983658631601   -1.78070138572181   -0.34602564760887
H          -0.59294640330154   -1.51869404638871   -0.00820594162595
H           0.18453866683567    1.08775108171109   -0.90737645521052
O          -1.93377284711049   -1.05727260935292    0.63321162151079
H          -2.19558570352159   -1.66595074624022    1.32615034913640
O          -1.08843541032336    2.02740005392025   -0.95211158916579
H          -1.80582087563620    1.39239995468615   -1.26029180427594
H          -0.98637443845879    2.67688560746776   -1.65000923830471
O          -2.68575052002101    0.15763699261027   -1.75272515915897
H          -1.95765313721944   -0.27514822373206   -2.23869697179418
H          -2.79685404535955   -0.36771975255963   -0.94808458046923
O           2.93359938123590   -1.33242267750028    0.57551147008906
H           2.63245904348984   -2.20924714967459    0.82283821729417
H           2.79268145023071   -1.27512315139658   -0.38247948480739
O          -1.03433028262033    1.07356416509315    1.70737761003077
H          -0.05404610222675    0.94610966802995    1.87883375351779
H          -1.09225321508213    1.71194156611013    0.98686035922381
H          -1.62469473166590   -0.20700378043624    1.10465414739885
N           1.58578772073176    0.80234082228372    2.06147459164164
H           2.01252021559061    1.65222400994576    1.71250672784384
H           1.96995116121617    0.04057566927422    1.49993312536307
H           1.90845813944600    0.66886823624409    3.01243190657397
