    26
        -50.44926945  Gyration_radius:  2.40433115639 Dipole_moment: 3.101
 S           1.80879179575729    0.15317820615826   -0.81388517237703
O           2.08086690385608    1.56193058874514   -0.75776059976050
O           2.90829454428297   -0.74960155916323   -0.84894590195515
O           0.91362569985927   -0.20235855726489    0.40169268811639
O           0.92263099175464   -0.14679062669489   -2.04295310523026
H          -0.03431616212834    0.14572477999549   -1.88395865699939
H           0.62799532885669    0.60387008869601    0.93894030396495
O          -1.48940632815116    0.44670066079847   -1.51633572107079
H          -2.07671630716519    0.29949411515546   -2.26036957079535
O           0.98404531825577   -2.71252681183596   -0.82796772289896
H           1.01194660639558   -3.00730753995182   -1.74077006745717
H           1.73866390027276   -2.11356669878161   -0.72005733457312
O           0.21160868779598    1.89060733825864    1.71815261440289
H           1.02759441617336    2.33091172177868    1.96710942802212
H          -0.12388097402628    2.38489844108055    0.91790734996139
O          -0.30089231067696    2.82761872781369   -0.64891327144373
H           0.60890192503351    2.56431215678599   -0.88215322746807
H          -0.88613189963323    2.15273365460147   -1.02242573742281
O          -1.53077693533785   -1.68213385458325   -0.14649685881845
H          -0.66490578018568   -2.09255641037232   -0.32947165978010
H          -1.49145571724566   -1.40546069894732    0.80095090177048
H          -1.57887319156315   -0.38936887065237   -0.91807795194644
N          -1.25891679428221   -0.80805359121957    2.41658595980364
H          -0.37402638763034   -1.23571773733674    2.65958210605364
H          -1.92284629241913   -1.01061967357900    3.15304784179351
H          -1.11182105784670    0.19408214051282    2.38657338611610
