    26
        -50.44926940  Gyration_radius:  2.40437063186 Dipole_moment: 3.100
 S          -0.20710864140917    1.94550105054246   -0.36002050882489
O          -1.60820606605310    2.17632230828548   -0.14697286647403
O           0.69244669178870    3.03653303608513   -0.19997377214732
O           0.23077674763632    0.79849402184582    0.58771877907112
O           0.00567948701710    1.37256522570843   -1.77853090205972
H          -0.27607878353613    0.40045770546458   -1.82633695906700
H          -0.53659286444822    0.38475420358466    1.09770617218530
O          -0.55247825173481   -1.10445057170663   -1.78688101492528
H          -0.45767556496464   -1.50101005933749   -2.65518439062585
O          -1.76686275155210   -0.21939735834740    1.84478691546977
H          -2.18782293308962    0.51041554351202    2.30508552758550
H          -2.31579709504507   -0.36820073288704    1.02403534706524
O           2.64994603986011    1.18923756239056   -0.75818556768897
H           2.06031938336061    1.88921165972461   -0.43842512505725
H           2.88342345125672    1.43299535309167   -1.65649555909116
O          -2.86615624941623   -0.18464727037451   -0.50785915444051
H          -2.61854144427807    0.75823037192484   -0.54110697641510
H          -2.21961157047232   -0.65748477366921   -1.05179665406488
O           1.66610625669742   -1.43018985208074   -0.61128993105231
H           2.06391773685071   -0.53946144745126   -0.61579633628988
H           1.45566854212338   -1.61539192428157    0.33590450118055
H           0.32294089215760   -1.31754841881730   -1.28371629455521
N           0.97162657346730   -1.77230721253125    1.99786571834485
H          -0.02997295635343   -1.63706344221260    2.07066625270553
H           1.41631169284750   -0.96168931162048    2.41033497163506
H           1.22374167729194   -2.58587567683881    2.54446780753869
