    26
        -50.45127729  Gyration_radius:  2.48003622052 Dipole_moment: 5.947
 S          -0.30450683245242   -1.38814045345904    1.19597753314292
O           0.51314539167734   -0.20006571099723    1.15986074962448
O          -1.37120683731663   -1.35875902572588    2.14209639895742
O          -0.85496877825997   -1.63081141314445   -0.24660696328761
O           0.56966831775806   -2.61618710514289    1.37991636033467
H           1.24344332101735   -2.62549634023486    0.53952065325720
H          -1.40455047069140   -0.84496059046769   -0.55095554147518
O          -2.15296940385111    0.42781888323643   -1.06487328169020
H          -2.64404515676567    0.26773186379281   -1.87270751762002
O           2.04344422031595    0.33870142512979   -0.85147490439581
H           1.46195998098865    0.18910766639452   -0.06243440858544
H           2.69576883415297    0.98085193287618   -0.56363971315100
O          -0.10949056400276    2.97863953111014    0.84242638188607
H          -0.65564573668941    2.27584069158546    1.25825883789084
H          -0.55106706590361    3.80365303485253    1.05053178113446
O          -2.03967302163498    1.26515419619463    1.64926530748561
H          -2.38341914385769    1.06223724850828    0.77058186225597
H          -1.82138297557290    0.40930854327657    2.04625815945309
O          -0.12207885205550    1.90447156099858   -1.60227087978174
H           0.65603205364631    1.32246091246216   -1.56442500714166
H          -1.37885292653635    1.03601601906407   -1.31526049636796
H          -0.08067783641740    2.41881805748558   -0.76315126188848
N           2.04914664625575   -2.53340313017835   -0.67191124359657
H           2.19574768213169   -1.54183793669925   -0.86974096131839
H           1.50442560937737   -2.93622005110358   -1.42269511842683
H           2.94175356468121   -3.00492981980951   -0.61254672667901
