    26
        -50.45476396  Gyration_radius:  2.47382623867 Dipole_moment: 6.128
 S           1.97920415431882   -0.86085495164874    0.90873065959658
O           1.90350740026507   -1.12799443000830   -0.54494078885626
O           3.28625251354464   -0.97301158615773    1.45305541163376
O           1.34413328638787    0.45938303965785    1.16755158666479
O           1.05648725693567   -1.90972746537192    1.60934415156398
H           0.14128424033962   -1.79829586029425    1.26943657903890
H           1.34048688201107    1.24538972304728   -0.14288395995206
O          -1.46716154612523   -1.70994755664471    0.79687074620388
H          -2.02840481594225   -2.15212103249035    1.43504219566317
O          -1.07941986314538    0.84005863513519   -2.08720257567968
H          -0.87534721538836   -0.14342425601500   -1.99548072715750
H          -1.54825410933715    0.93977916307237   -2.91620999394718
O          -0.41255812810548   -1.63580544883772   -1.72691824513250
H           0.50087758739561   -1.58116431987895   -1.36831380725750
H          -0.94583605896881   -1.93284929253080   -0.97496651218575
O          -0.59980224772202    1.97865058489907    2.11884467057944
H           0.16535684705947    1.42835601377838    1.85283372106099
H          -0.65691962635905    1.91138293222429    3.07281812978191
O          -2.30040338518182    0.72511432262254    0.45109699176603
H          -1.97619504139514    0.94242559575621   -0.43603229536214
H          -1.82077595222104   -0.77477614754453    0.70392437100125
H          -1.78042451644676    1.27610792089571    1.07219377801821
N           1.42924576719117    1.27093777031740   -1.21466289490130
H           0.48426957929377    1.33269536853236   -1.64745186441467
H           1.78775711102063    0.27477237313586   -1.30062425294049
H           2.07263987057995    1.97491890434626   -1.55605506478549
