    26
        -50.44926942  Gyration_radius:  2.40442996853 Dipole_moment: 3.105
 S           0.45401400167724    1.80318294788900   -0.70699363599378
O           0.36692221108772    2.64599693551118    0.45214700519594
O           1.28872822952705    2.21397472827275   -1.78377321628413
O           0.90926206404001    0.39808276784278   -0.23440948890247
O          -0.96259316442704    1.57481745371153   -1.27900854887245
H          -1.48796437024319    0.92447895283271   -0.70689272153707
H           0.97398599734860    0.31502974545389    0.77032094264401
O          -2.16108335235528   -0.19208748183481    0.09606269175384
H          -3.05666435981742   -0.35207980469634   -0.20811713868588
O          -1.27461672954725    1.41724963088334    2.20776403495370
H          -0.84063417426578    2.08071152881285    1.63951517791189
H          -1.77535618353208    0.83563406159398    1.61750133626493
O           0.53937431836739   -0.16000122975527   -2.94965085088330
H           0.95791581091138    0.63565485461370   -2.58686540636235
H          -0.08031778922627    0.14954167658460   -3.61381355185779
O           1.04226478494457    0.25005104598628    2.32782616497396
H           1.63788727762931    0.95209655197335    2.60009641409241
H           0.12254149431587    0.60721542331763    2.48172575728843
O          -0.69248035758065   -1.87043950947726   -1.10326623718664
H          -0.00413768508222   -2.15330219205319   -0.45386447117298
H          -1.58340958542658   -0.93390323215444   -0.32863147702335
H          -0.21651200840583   -1.33245360739400   -1.76332979813860
N           1.24320077307513   -2.45359897604746    0.71965343749254
H           1.09968684999088   -1.85412572787539    1.52389962666936
H           2.06146987866785   -2.11206372281177    0.23106149823723
H           1.43851607832921   -3.38966281117941    1.05104244542069
