    26
        -50.45476387  Gyration_radius:  2.47381922051 Dipole_moment: 6.126
 S           2.30237601550806   -0.20318697022347    0.37461128760352
O           1.92120643659820   -0.80449083764893   -0.92283632779412
O           3.68798184846765    0.08328004710223    0.49806900619268
O           1.43259657768333    0.98142784530299    0.60577697535567
O           1.90632878459427   -1.23156849670035    1.48284097059916
H           0.93850801179348   -1.39267471056819    1.42938020870220
H           0.87836774801202    1.42990165798008   -0.74586334197136
O          -0.70163825433189   -1.74939940772484    1.47013279942706
H          -0.93828729924652   -2.14058660137514    2.31199938986848
O          -1.77081230671919    0.10254209639867   -1.75550150088157
H          -2.45005452354822   -0.08816296519124   -2.40302478418237
H          -1.29816586128509   -0.77050634468037   -1.57753236024853
O          -0.40443168613194   -2.03434760746238   -1.23499094887442
H           0.52303569793937   -1.71229544419522   -1.18990525335318
H          -0.62383669451352   -2.25643587721269   -0.31817077009645
O          -0.52320777585289    2.23980539042832    1.86392576936223
H          -0.30790818546501    2.37917940436233    2.78691116329528
H           0.26232928278433    1.81424283190470    1.46284451771761
O          -2.20826937029440    0.31748542506550    1.02126212595904
H          -1.30090623763987   -0.95346796685343    1.34555538676699
H          -1.70821855707050    1.09013975384937    1.35688270565412
H          -2.19705890044565    0.39003855491539    0.05487976373641
N           0.67302463322879    1.22815881809087   -1.78235488466995
H           0.99508498999379    1.95281698292334   -2.41260882883811
H          -0.33397291374856    0.99370851461595   -1.90528588648085
H           1.24592851969668    0.33439591689702   -1.81699719285259
