    26
        -50.44926928  Gyration_radius:  2.40447037754 Dipole_moment: 3.112
 S          -1.32495862876735    1.26891746040410   -0.77149242067518
O          -1.88159911981096    0.53776184891069   -1.87483902880830
O          -2.10718773891211    2.29732829720401   -0.17510939730890
O          -0.93517926468666    0.24317612697226    0.32456487727285
O           0.01817880811714    1.89824928613251   -1.20239986546404
H           0.74982861745115    1.19933269910362   -1.25409370579571
H          -1.06090112424869   -0.71708818734156    0.03798862349227
O           1.84209179686376    0.13252825055786   -1.14221029703826
H           2.69372173025124    0.47133714844045   -1.42526064476490
O          -0.05742547059958   -1.31466368777500   -2.60144400806493
H           0.75374012550606   -0.92586527749173   -2.24314171292353
H          -0.72327474160591   -0.60199395246352   -2.61428408676878
O          -1.26548778521445   -2.17857931907614   -0.47110039634797
H          -2.18486185251140   -2.24372230825982   -0.73985296821617
H          -0.74875141596985   -2.06026203016010   -1.31736507825562
O           0.00983728813672    2.56764234985085    1.55714013537749
H          -0.83141188783568    2.48025157931002    1.08324926560230
H           0.40944853952554    3.37833197169783    1.23474606237174
O           1.77271781062381    0.39753766964484    1.37471964144973
H           1.85630975968857    0.16308733507283   -0.11078354768788
H           1.15608168142848    1.14071827014965    1.51316764586007
H           1.30359816449738   -0.39771443629494    1.72585365287235
N           0.33373477513098   -1.75631348082749    2.21049000715332
H          -0.46423332250179   -1.29371290313655    2.62779727753872
H           0.68294304306092   -2.44225196908561    2.86754262484309
H           0.00304024238739   -2.24403272153932    1.38611734427754
