    26
        -50.44246721  Gyration_radius:  2.56911580238 Dipole_moment: 3.916
 S          -2.57632434718731    0.32509733563311    0.33800960514545
O          -2.30989994509655    0.73564347614515    1.68456922286378
O          -1.91479667899516    1.03868177702861   -0.70128257551523
O          -2.37156929953199   -1.18484912358279    0.18957332624864
O          -4.12229154189702    0.43998622620187    0.09574484879897
H          -4.52726749393668    0.16086123777596    0.91297932984420
H          -1.41740356686611   -1.48603075657943    0.49658934288223
O          -0.10775534956909   -1.91493179031505    0.93260075791952
H          -0.15189184545082   -2.84044666885962    1.18018164309533
O           0.78621705283142    2.13642554911614   -0.62129242963266
H          -0.11826203347836    2.42153102105882   -0.77937195862529
H           0.74852266590774    1.67883553403266    0.24240256657830
O           0.40980107064443    0.72848254073047    1.69772597342054
H          -0.52319629976176    0.92285647189348    1.87497841222562
H           0.44319877032330   -0.23069607449899    1.58694656059013
O           0.13333623490782    0.13029288137105   -2.35506388226861
H           0.59369784372790    0.87748716162039   -1.92634024946820
H          -0.77895265768135    0.23885532208829   -2.05932017793280
O           1.45438835080939   -1.72336503358646   -1.00438303947384
H           2.15966225222216   -1.11826297893330   -0.65591600734709
H           0.54661001461098   -1.86747873027486    0.10078377290597
H           0.95696098624587   -1.16277708214273   -1.64790892677800
N           3.06892277751267    0.18732227693512    0.00329868163236
H           4.08038975028753    0.15423002077982    0.01217684683908
H           2.75117025669661    0.36129597386295    0.95004288282026
H           2.78673301272806    0.99095343251888   -0.54772453677933
