    26
        -50.44536593  Gyration_radius:  2.51252904016 Dipole_moment: 4.862
 S           2.18721379526350    0.82795194968021    0.30063516856278
O           1.92341072191198   -0.42451251709234    0.94566189677893
O           3.47771343134792    1.39763604209466    0.38185674735667
O           1.80270234588698    0.69040075055405   -1.21216482770864
O           1.15338101627633    1.88049802645748    0.80510349854170
H           0.29448921160690    1.44108448721533    1.09492543687912
H           1.12743377925618   -0.04515468841887   -1.33839080779352
O          -1.07656792176919    0.84712560575367    1.56045832864148
H          -1.39107003092461    1.30598775874193    2.34118848882194
O           0.03756347981838    2.81610448306773   -1.63903545494571
H           0.20692335950789    3.35867488333770   -0.86457231817612
H           0.80128800766497    2.22527120170604   -1.71141150342500
O          -0.09445205694950   -0.95967010137882   -1.74444048100418
H          -0.08971349798688   -1.02802069266925   -2.70147721692043
H          -0.83607677459045   -0.31602375421144   -1.51373498198160
O          -1.79303767351333    0.87308872792022   -1.10080330175736
H          -1.29825341898369    1.66794094063141   -1.38593092916347
H          -1.75801857557237    0.87427453814936   -0.13094979017317
O          -0.19239873921741   -1.41212889987644    2.28967356740354
H          -0.79351578231053   -0.08952163636600    1.87599330777574
H          -0.53296161732985   -2.08234928843807    1.64528662771175
H           0.71212492288250   -1.22198633700666    1.98602157266840
N          -0.93807780774943   -3.03659846296330    0.26923832926373
H          -0.55566337364683   -2.46124169715361   -0.47577674447743
H          -1.91605483882303   -3.20163759023486    0.06886610465373
H          -0.45838197206962   -3.92719371953710    0.25377930241432
