    26
        -50.43756355  Gyration_radius:  2.67121719165 Dipole_moment: 3.884
 S           1.38941294445599   -2.54722467297253   -0.53188732662961
O           0.42367171168546   -2.21736832639650    0.47510609256417
O           1.87172287562024   -3.87735559429094   -0.60132069118166
O           0.66065194205723   -2.22234642691051   -1.91150484009926
O           2.54705320380547   -1.56289398257361   -0.50459595016644
H           2.15830427065677   -0.59000775319101   -0.46189260730309
H           1.15357447155972   -2.68570270467833   -2.58352111774742
O           1.64144517025830    0.74872918505393   -0.48857536352575
H           2.38027019603944    1.34241501876084   -0.63852754412818
O          -0.91618860631938   -0.58898496012710    2.28337000603754
H          -1.63978560988891   -0.51387001288346    1.65179551591484
H          -0.36200675584799   -1.30325101030763    1.94254933818964
O          -0.95999275444532    1.17863558889998   -1.58413237600141
H          -0.01939505606096    1.02676279836673   -1.42661617289664
H          -1.40443523137759    0.39188679832149   -1.22589337291483
O          -1.88846636851004   -1.17428987687161   -0.44775416092931
H          -2.26168862862100   -1.75485605911255   -1.11217673762804
H          -1.04498186587482   -1.57927637050613   -0.17191295489752
O           0.66727069723031    1.50304255232898    1.69472015605865
H          -0.01253120976250    2.16140164284610    1.38419218115668
H           0.14169378324252    0.75813075996887    2.05980530465892
H           1.24743595282577    1.02829626337007    0.44933039752719
N          -1.24636370893325    3.02350266583480    0.60274662402406
H          -1.08356433429833    3.99662349575459    0.37886682542415
H          -2.15416751671392    2.95579713510252    1.04498123161605
H          -1.28893959281678    2.50220381633517   -0.27715245706507
