    26
        -50.43756353  Gyration_radius:  2.67107835392 Dipole_moment: 3.884
 S           0.26785710672544   -2.93449775810138   -0.12712300210044
O          -0.90896841671076   -2.11567182064108   -0.12247795399009
O           0.11864987933866   -4.33818752918966   -0.24568693283931
O           1.10715110956489   -2.42753889527198   -1.38333337717762
O           1.16104553372594   -2.59289135332971    1.05408247762281
H           1.25812575486694   -1.55039864546560    1.11018408402846
H           1.73435465261176   -3.11954079114006   -1.57577752192714
O           1.46839041385617   -0.13110587983556    1.14916387229045
H           2.15971349005681    0.04273753054204    1.79156650751884
O           1.17254027613936    1.35267017452264   -1.27232696907407
H           1.47045277442847    0.79943853575657   -0.53897455170548
H           0.39893789075379    0.89057234237499   -1.63681097732643
O          -2.47685488977233    0.08803572294372    0.51037887406821
H          -2.16564216582024   -0.82609822292483    0.47956003591195
H          -2.31460567355221    0.43497275320335   -0.37358730178073
O          -0.99069063470253   -0.20789004416569   -2.03019924985370
H          -0.84584361464779   -0.60507842939443   -2.88989770703335
H          -0.92073364131614   -0.93046753570257   -1.37863659923061
O          -0.50675225504979    1.16244224718129    1.99205428664340
H          -0.38146176313065    2.03125672408612    1.52143558377838
H          -1.31252278062759    0.77497529611202    1.58584915580067
H           0.61734714298338    0.37400405980659    1.51466698501177
N          -0.09219880799279    3.29536652341120    0.42864215182924
H           0.41114357875322    2.78121481019336   -0.29945989790436
H           0.49502637930044    4.06274925459318    0.72840404257419
H          -0.92446134979779    3.68893093065626    0.00830398498765
