    26
        -50.44403647  Gyration_radius:  2.53944583345 Dipole_moment: 3.662
 S           0.60795528131556    0.61277507023287   -2.12599539610811
O           1.40650611737193    0.76412997117292   -0.93247209092529
O           1.10698589221675   -0.24857524880031   -3.13227502555500
O          -0.80767193819775    0.11226202841198   -1.67466555609286
O           0.25773412484792    2.00205548009389   -2.67738061247086
H           0.16912766853915    2.59003499071395   -1.86093163963925
H          -0.69660395005403   -0.86528828273254   -1.32104114030131
O          -0.42669726625757   -2.18192705218792   -0.76766339752899
H          -0.28692749585798   -2.78371886047359   -1.50207005942847
O           0.14631233656949    3.05449339187072   -0.35033098640857
H           0.83120943390348    2.40186016578206   -0.13631941924597
H          -0.67477156713222    2.72030694736741    0.05302988581890
O          -2.07100567245508    1.52960402520975    0.23047158198400
H          -2.98028873129507    1.76592846168457    0.03782391788264
H          -1.73652964306325    1.02042372671384   -0.53299728602337
O          -1.56292060112706   -0.90791035872899    1.66098989626874
H          -1.39735394154104   -1.47624819808391    0.90116714349180
H          -1.75315076282977   -0.02571499891527    1.31446532919880
O           1.83345020305626   -1.65243733318688    0.22888104993060
H           1.66761921988307   -1.48393713251711    1.19867704143372
H           0.50241979401900   -2.05439619675706   -0.32749030621559
H           1.93120097754953   -0.77433137535256   -0.17485612169144
N           1.11922874836076   -1.08992208394057    2.74443961589206
H           0.11669730716793   -1.00541826736147    2.57073122157336
H           1.44477925415509   -0.21429359294652    3.13309922787824
H           1.25269521107089   -1.80975528714760    3.44271316631546
