    26
        -50.45014411  Gyration_radius:  2.47230870519 Dipole_moment: 7.584
 S          -0.85800391909086    2.03934192816341   -0.17139458304694
O          -0.09123989730873    2.06006204374769    1.09405805739358
O          -1.74487075358893    3.12878917422535   -0.35853219585136
O           0.08025972178591    1.82088994259191   -1.29509358493898
O          -1.71575571686288    0.70613407234875   -0.10658977590599
H          -1.24106299495330    0.11889471890960    0.51560107348216
H           1.49954811498744    1.76256266095827   -0.77078448481906
O          -0.16199956653516   -0.47600681898992    1.73762209698110
H          -0.08371843183455    0.49509169198051    1.82513839707178
O          -1.87474936507770   -1.77958846369506   -1.46515529941989
H          -1.90875936937919   -2.23401626820717   -0.60389290675465
H          -2.27573801358974   -0.91571373730465   -1.31812884183861
O           0.56580802869877   -0.76607927697340   -1.86473920568813
H          -0.28428294904761   -1.26244935430583   -1.82159080258449
H           0.31374320484055    0.17684704573593   -1.84599351234102
O          -1.95024326705654   -2.52268633573043    1.18803431510737
H          -1.31280305516004   -1.89247671878942    1.55741220470503
H          -2.78012910861116   -2.37425751881994    1.64392265263099
O           2.03948384997912   -1.01591851307408    0.20456936875533
H           0.66352015569217   -0.77634295642622    1.31295908950333
H           2.53609645596066   -1.83388148550045    0.16822856688432
H           1.46912484719971   -0.99548064076662   -0.63806638090596
N           2.19123143290557    1.66537647394825    0.05529526883306
H           1.49071268106837    1.94442492658860    0.79796107327215
H           3.00412075423666    2.26725492017571   -0.00287044182571
H           2.42970714082029    0.65922848932911    0.16202986134840
