    26
        -50.45460282  Gyration_radius:  2.44589833643 Dipole_moment: 6.218
 S          -0.33990762466880    0.68821146675685    2.12069325140699
O           0.37276965491651   -0.59761156120924    1.98634544179584
O          -0.46047706260988    1.16549667526521    3.45215119052903
O           0.29262638486451    1.67226380335885    1.20029693093374
O          -1.78364544470784    0.46690408364033    1.54773315547097
H          -1.78390883017736   -0.18584160160980    0.80931269280775
H           1.61125639254435    1.13514751853317    0.74234050151118
O          -2.06238693187036   -1.16188653926064   -0.52570341671052
H          -3.00370269330222   -1.18441138196246   -0.70227368116429
O           1.63430940019520   -0.92837129521992   -1.62673204430930
H           1.11000510234420   -1.55642217474584   -1.03997351236087
H           2.06979742830341   -1.47437368366790   -2.28215720319023
O          -1.23783889931982    2.44360680050446   -0.79565770317215
H          -2.11381419209037    2.54691435575449   -0.41998549798063
H          -0.64935743144746    2.24484278150182   -0.03425160495710
O           0.29057884051411   -2.40362149703883    0.03330440578269
H          -0.63504409258965   -2.33293561281518   -0.24157849961926
H           0.32533548319595   -1.87834813744603    0.86017872474107
O          -0.84457608918289    0.26976123790228   -2.30147586176761
H          -0.95996073039722    1.15282148718446   -1.88508109456901
H           0.08929288221486    0.03482722558551   -2.19781653815496
H          -1.64164803614171   -0.63773804312200   -1.27398799462012
N           2.33090926271239    0.33113575658253    0.64576819674941
H           3.26960977441794    0.57840478930469    0.93526495750454
H           2.28713660264644   -0.06661735810594   -0.31521999346544
H           1.83264086964528   -0.32215907570272    1.30850520680278
