    26
        -50.44450998  Gyration_radius:  2.4871503812 Dipole_moment: 6.923
 S           1.37267246424250    0.39033136175525    1.97696343181365
O           1.58446368238081    0.56851412632179    0.56287788291408
O           2.29636474438554    1.00179855669944    2.85512173348868
O          -0.09051885100346    0.84744993075018    2.29078288087557
O           1.28898998502663   -1.12272344943111    2.28443295264406
H           0.50403245427253   -1.46554941823274    1.77667463902822
H          -0.44748866682666    1.40229728016524    1.54708450108530
O          -2.01817064137142   -0.18967413326676   -0.65959670095458
H          -2.86572314027336   -0.42424299281531   -1.04000468090064
O          -0.87941057574993   -1.88953275125936    1.07891251907351
H          -1.51216745051271   -1.93424623803515    1.79869024724231
H          -1.25183971851503   -1.26070600347004    0.41732510716626
O          -1.30673976927484    2.13966648291405    0.38186413475495
H          -1.63277273493901    1.31288514189229   -0.05157446662874
H          -2.06554315249405    2.57106157175439    0.77928016692014
O           0.78718177383480    2.03942343050157   -1.59840114195692
H           1.28413301818004    1.56541326988095   -0.91285700879442
H           0.08796339778986    2.49396821284377   -1.11763532257423
O          -0.33861222442202   -0.21806312023881   -2.53717610818858
H          -1.34550574769230   -0.21563900568080   -1.45183357481859
H           0.10225745446733    0.65068306428860   -2.40836693093217
H           0.31339196821590   -0.87911214192657   -2.19422374334903
N           1.37067138944854   -1.76587433567642   -1.15212634218145
H           1.62171447532718   -0.98691695824428   -0.54593454778291
H           2.22813968097509   -2.17054663554570   -1.50517818973113
H           0.91251620452724   -2.46066523595053   -0.57510142820918
