    26
        -50.45460288  Gyration_radius:  2.44604661293 Dipole_moment: 6.219
 S           1.62735025322379   -0.50008246427136    1.48031714675863
O           1.36387668239181   -1.53775796792081    0.46384739474686
O           2.71912455806944   -0.77687893779185    2.34431399532293
O           1.74522250967582    0.81287536189762    0.78906105330639
O           0.32937956891231   -0.38353772282585    2.35398659131904
H          -0.48145567659227   -0.56266095199730    1.82322117007971
H           1.90724017705016    0.57912723782743   -0.67941938705963
O          -2.01179715321296   -0.70952275996999    1.15269553562618
H          -2.66455868826586   -0.63081944365854    1.84943733540785
O          -0.66830043242519    0.02887010230606   -2.39427359454619
H          -1.13385568042919   -0.10539897885085   -3.22044060408529
H          -0.80929525890443   -0.80765559490039   -1.85207062228716
O          -0.86010162965746   -2.08010381975184   -0.89331093696462
H          -0.02230353941669   -2.05561944400158   -0.38500635879333
H          -1.53386650547687   -1.87090426647351   -0.23026950095898
O          -0.18648597743526    2.51382697680435    1.33340609868669
H           0.59416076208809    1.94644891863808    1.14839459974136
H          -0.35389444693212    2.41792505597939    2.27248125580182
O          -1.99086687387508    1.42256744129094   -0.31031857000597
H          -1.50661012190425    1.16035466619963   -1.10704247777029
H          -2.08795985824433    0.12179726329038    0.59170287027884
H          -1.37316290496984    1.96600359418665    0.22773519663408
N           1.88391185306071   -0.06533201827803   -1.54990383488363
H           1.00059347571004    0.08888672509246   -2.07868704951188
H           1.80048641100708   -0.96310665011489   -1.00089778113221
H           2.71316848657968   -0.00930232278720   -2.12895953570506
