    26
        -50.46806300  Gyration_radius:  2.4905869312 Dipole_moment: 2.767
 S           1.14000548284147    1.35816050352172   -0.77702976105102
O           0.07796320964904    2.26537216124685   -1.16128353841939
O           1.46189100081159    1.38400415430152    0.63978174536363
O           0.88931633132901   -0.00485015211933   -1.22370207611962
O           2.43037613903778    1.87098174516817   -1.54434876452906
H           2.06355050353911    2.48283162697749   -2.17468615926582
H          -0.78773845558257    0.08446297904138   -1.36018529966025
O          -1.76622486031337    0.07258760523591   -1.36594343644233
H          -2.01716614341239    0.95775161342479   -1.64060839326990
O          -1.02136197822529    2.56052209029391    1.24365881911282
H          -0.19504587633910    2.57030696700044    1.73400688809903
H          -0.73890312294364    2.57655406710418    0.30822650135865
O           0.95480253163393   -3.07367452001852    0.57686427351058
H           1.87125826286212   -3.22184540043793    0.33769330569462
H           0.47040946218190   -2.98318693569962   -0.28109762836530
O          -0.12946752444612   -2.46077651207838   -1.75565189609925
H           0.37868578730951   -1.63292002209166   -1.75402010205881
H          -1.05088144048687   -2.18477751135613   -1.75866541142572
O          -2.02537080651265    0.07387426275183    1.31726341277098
H          -2.12339169793528   -0.05784915765592    0.35143226435479
H          -0.63875435055556   -0.51606167359715    1.65153559697019
H          -1.85099999797297    1.03608631198259    1.41438481419251
N           0.40619827947887   -0.74586478285221    1.78878333375303
H           0.62665542768085   -0.79639206334738    2.77799460301611
H           0.93611233090988    0.04438271388904    1.33621382565784
H           0.63808151545295   -1.65968007068580    1.31938310285060
