    26
        -50.44534223  Gyration_radius:  2.51420568929 Dipole_moment: 5.158
 S           1.14748478490265   -0.96626105271102   -1.79758127592960
O           1.14834146819426   -1.75477163198966   -0.60064158978938
O           1.80367288118343   -1.44900976208921   -2.95231048255707
O          -0.34009144897044   -0.65057290487186   -2.17678038013297
O           1.70846064800186    0.44949203262247   -1.46617295121597
H           1.53040000292588    0.67335944257478   -0.50617926402226
H          -0.95048113076644   -0.69407116696613   -1.36906320258895
O          -1.95872528152920   -0.69700635943334   -0.19563141174126
H          -2.77107286727294   -1.12758399296434   -0.46755384884512
O          -0.42573214212072    2.10188508199596   -2.49973675304940
H          -0.50387172132662    1.15251140402453   -2.67613579476491
H           0.51040711244828    2.30097412729167   -2.58016417916705
O          -1.20971175047314    1.95322754382119    0.10291904919835
H          -1.04730305581397    2.17148618085527   -0.83752346583859
H          -1.67638981299900    1.10317139173568    0.09768800018978
O           1.15644729912483    1.31060096826135    0.90368050521878
H           0.21318601478948    1.59261409056430    0.68636723840635
H           1.66039698524307    2.12021500032429    1.00764128997932
O          -0.68613846546256   -2.29913806559002    1.29703599629286
H          -1.50256409297165   -1.33792266965839    0.46701152685248
H           0.06267292139419   -2.36764347833709    0.67980478439890
H          -0.33210510260152   -1.76863191523742    2.05438458297703
N           0.46500556111754   -0.64449524662177    3.08876626327784
H          -0.08555527961599   -0.11828342469461    3.75482932727386
H           0.83885526822555    0.00563758374239    2.40306783882936
H           1.24441122431658   -1.05978319664182    3.58227819683784
