    26
        -50.46114292  Gyration_radius:  2.6924499911 Dipole_moment: 2.321
 S           2.04830812539403   -1.11771733842206    1.47350141128675
O           1.32219688864099   -2.25880251205412    0.91992461936397
O           3.10229011935027   -0.63226546039587    0.63398214087642
O           1.10263247464403   -0.05356698924202    1.84598859270770
O           2.68293690392833   -1.64269776067027    2.82988898447680
H           2.05730154914288   -2.29440060718646    3.13389571712654
H          -0.50696726002904    0.00753560329090    1.57774701766176
O          -1.46810346788258    0.14331243558821    1.39180935311908
H          -1.90508250537149    0.13778373231466    2.24422853713944
O          -2.31397385094784    1.39578880432994   -2.33264769069545
H          -1.85137347379994    1.88088419274828   -1.60593062511633
H          -3.13694744621942    1.86083926021593   -2.48508116341978
O          -1.09285675885190    2.39621464385304   -0.19903962474424
H          -1.30744236048061    1.70273761086694    0.44839101167494
H          -0.14223467190013    2.31227443815572   -0.34965232969383
O           1.47154497858242    1.28030450828703   -0.38327313941362
H           2.42640221258476    1.24489363009929   -0.49816912865669
H           1.34060303793230    0.92674477328717    0.52718834683895
O          -2.07044150451387   -0.94570659717257   -1.07862323496950
H          -2.27736973317746   -0.15002639996574   -1.61950934666245
H          -0.55653251593487   -1.10929638034370   -1.28848361999312
H          -2.06127185636661   -0.64478542573963   -0.15428563590661
N           0.52372310317228   -1.11309285032151   -1.28942603878367
H           0.84637809064411   -1.69150827607973   -0.45925514874611
H           0.87359020478954   -0.14116604118696   -1.12924618536237
H           0.89268970666255   -1.49428099423812   -2.15392281009668
