    26
        -50.44543537  Gyration_radius:  2.4917961233 Dipole_moment: 5.570
 S          -1.98853011470075    0.56922383251335    0.37868177125792
O          -2.58421482330307   -0.67691933844083    0.74625287442952
O          -2.66908474157336    1.77096169199879    0.72388378972154
O          -0.56056699327351    0.64744737825353    0.95438360224385
O          -1.76927548773272    0.58547004954267   -1.17003591166150
H          -1.39700594333157   -0.28373047774666   -1.47560380287093
H           0.15503554733321    0.22240168820922    0.36151149364738
O          -0.44041444422003   -1.51830328981453   -1.96062035492610
H          -0.27341628711366   -1.46474855483039   -2.90386050481488
O          -0.76073988117454    3.17761434305694   -0.56120937336545
H          -1.10156359868762    3.05534761103388   -1.44975813661131
H          -1.44000535765339    2.80536740125657    0.02818768310554
O          -0.67359087012341   -2.59425243124468    0.76650380466623
H          -0.69567220740421   -2.76164673315403   -0.17980632615712
H          -1.41811915076196   -1.99046854317324    0.93210962391418
O           1.80770985078570    2.35792225262328   -0.22540844097511
H           0.90141623592572    2.69410817482309   -0.39447027077572
H           1.99929181886598    2.60176279811669    0.68177024443597
O           1.34389565435351   -0.22391251544646   -0.48274633726970
H           1.77480459907707   -0.76488163586409    0.24580135930841
H           1.72983410393119    0.68397328766758   -0.48585289986254
H           0.35336117397761   -1.15841005557961   -1.50815547126034
N           1.97727962995243   -1.75717755488946    1.53954257931263
H           1.05744995662107   -2.19570609729185    1.44900301174101
H           1.99991735614056   -1.28877716416680    2.43646494045597
H           2.67220398420121   -2.49266610745638    1.55343103229716
