    26
        -50.44048314  Gyration_radius:  2.56364729906 Dipole_moment: 1.236
 S           1.90666152040253   -0.34862616760009    1.41797048336424
O           0.79288625529077    0.34646485997813    1.97304205962989
O           3.05366332539706    0.39965183479755    1.02929044185910
O           2.38113875296764   -1.40043915946780    2.50912890036469
O           1.47040555573786   -1.24615733863694    0.26051658880013
H           0.47825284968119   -1.54237179099043    0.29849517508899
H           3.30258176815300   -1.57684840044351    2.33163003465871
O          -0.92219039045980   -2.02116783093979    0.24942209112191
H          -0.90397466696301   -2.92261856358720   -0.07810382556485
O          -1.87673027366284   -0.02484915674959    2.04271479251197
H          -0.95183436134537    0.18585053262742    2.25154230052840
H          -1.83730044235507   -0.88896678562736    1.61472381810871
O           0.47127004903183    0.01018828011216   -2.90026713421477
H           0.44264529249114    0.57807220128451   -3.67150886597981
H           0.78654331652025    0.57632505436686   -2.14730376257637
O          -1.98685371505626    1.62257844625063   -0.03812748750786
H          -2.76814807514644    2.17498118251355    0.00840259932400
H          -1.98916127869746    1.07256351693903    0.78532202755731
O          -1.80055826742390   -0.56711996554940   -1.63269151887445
H          -1.93079212501051    0.28731886868691   -1.17402745224159
H          -1.00186255328129   -0.43885351093278   -2.19421880546505
H          -1.31398882357673   -1.45349911255075   -0.52015711208307
N           1.02425411575001    1.64582686362007   -0.83743252969643
H           1.33109380777335    2.59287349341596   -1.02596328683445
H           1.70176990495643    1.22769943141380   -0.21085844205411
H           0.14022845891830    1.71112322704394   -0.34154110982710
