    26
        -50.44048303  Gyration_radius:  2.56347035363 Dipole_moment: 1.221
 S           1.80140205355851    0.50194168399552    1.50605934504129
O           0.53650095960687    1.10329225693910    1.77139927392291
O           2.82764981889812    1.29967445308013    0.92539091899978
O           2.35465491604545   -0.03495910714963    2.89452121686108
O           1.63744457766042   -0.78312938677639    0.69562521533843
H           0.71436579845321   -1.24219454159750    0.80180097865760
H           3.30556670031976   -0.06430592639327    2.81352521469565
O          -0.56784572665210   -1.97818377773037    0.87437201905131
H          -0.36007904117891   -2.91463385479271    0.86227377452637
O          -2.23005158129845    1.10068829802684   -0.62519928121360
H          -2.21070495413222    0.85100421450463    0.33283676495008
H          -3.09538743255333    1.47933434556841   -0.78458345446547
O           0.72321128860945   -0.81794657434142   -2.72812291872392
H           0.86334451996260    0.00818938222931   -2.19447223825186
H           0.66369700065826   -0.54126647752680   -3.64354261887447
O          -2.02033378211297    0.25497503605631    1.88396055115946
H          -1.79022191605250   -0.67481084183912    1.76591194320832
H          -1.16996625630002    0.69872732726541    2.03722449501546
O          -1.51546862863816   -1.40030834902363   -1.40509646915565
H          -0.98266654296655   -1.77328871519565   -0.04979856570358
H          -1.83654644790614   -0.48809599581976   -1.25691477923117
H          -0.70451787529457   -1.30182444063204   -1.95492778215388
N           0.78715244662738    1.46265451942739   -1.30302220316308
H           0.93668146360552    2.34233376578679   -1.78296408951919
H           1.46808133648064    1.40682249820136   -0.55491012415554
H          -0.13596270532745    1.50531018787301   -0.88134717676710
