    26
        -50.46452453  Gyration_radius:  2.41382137864 Dipole_moment: 2.379
 S           1.15640828978989   -0.69174975588255   -1.24134124294949
O           0.04932041370507   -1.48628458129951   -0.75226764111479
O           0.83741718537947    0.73316302406764   -1.23423460365545
O           2.41726886708790   -0.96113165576193   -0.57967974381477
O           1.35782308193730   -1.09797692580469   -2.75530580800426
H           2.23754331997301   -0.76860304500081   -2.89857678235808
H           0.41394154212838   -0.81974627112965    2.10275257179388
O          -0.49545728871696   -0.88930674535281    1.76460841870519
H          -0.38740867242737   -1.21266799092663    0.84357011326341
O           2.19003059669750   -0.40786405556278    1.93961470527889
H           2.32545168963003   -0.66000664700215    0.98916720041196
H           2.94209825116712   -0.75824151490427    2.41931378911889
O          -1.69418680863257    1.46277109467163   -0.93949004905488
H          -0.77450727637273    1.26203844882074   -1.22221943871656
H          -2.20539578163355    0.61598988714258   -1.09034343350985
O           1.30945941489698    2.02632953773335    1.04459880071923
H           1.27006909470326    1.69207842342273    0.12368292087097
H           1.76640712691037    1.32833739397813    1.54438860669517
O          -1.14341283298276    1.54729625862648    1.46788810846664
H          -1.49312994157653    1.57564310227169    0.42754794551681
H          -1.00735172281473    0.54528380140773    1.67284984456006
H          -0.17638629325804    1.90297914301060    1.39682614049039
N          -2.71539768482364   -0.96204221924372   -1.24051131260229
H          -3.28110071714722   -1.34840308628623   -0.49545267612111
H          -1.78379865256589   -1.37061263397760   -1.16591885385481
H          -3.11570521108574   -1.25727302699243   -2.12146756007854
