    26
        -50.44140906  Gyration_radius:  2.5242460564 Dipole_moment: 5.041
 S           0.42784237335465   -2.35294022648426   -0.60616596532224
O           0.58773167539611   -2.17842826804441    0.81324079927596
O           0.11182059023977   -3.64915147504334   -1.07582853705200
O          -0.64956353664504   -1.31122750867304   -1.07005840349918
O           1.68408695115865   -1.84355054310542   -1.35091543452304
H           1.81308698142947   -0.86196629579153   -1.21368918475720
H          -1.15827645461462   -1.06899765862390   -0.22086321767275
O          -1.76988198566663   -0.80921884487862    1.14626078824123
H          -1.27363896593829   -1.52244361563787    1.56548135578474
O           1.98953838060094    0.73817884145099   -1.24769718917169
H           1.09768902579940    1.02286651233086   -1.58912773971110
H           2.61556153449391    0.93577391636003   -1.94752094165273
O          -0.40912485557054    1.18625013696273   -2.20566633082846
H          -0.62274201001927    0.24286130318544   -2.20243359600929
H          -1.05233081033421    1.58356523323448   -1.59505869358006
O          -2.37550814003853    1.70521772517403   -0.33963596238557
H          -3.24303212591634    2.08652096261876   -0.48264139620176
H          -2.50892278740434    0.84289803192887    0.07278241482262
O          -0.73539885741389    1.37920092240738    2.08174040701306
H           0.21892647175619    1.08608317445884    2.02240095664551
H          -0.87707613786281    2.01600106429543    1.37590143363781
H          -1.41169847410250    0.02804896384653    1.58046913983419
N           1.67179694118932    0.34248009958722    1.70223123387948
H           2.08135106388759    0.68895936863991    0.84189262844962
H           1.39627030168462   -0.62419202325065    1.53187433265581
H           2.39149288045957    0.33721021299755    2.41302709211404
