    26
        -50.45564918  Gyration_radius:  2.41796383032 Dipole_moment: 3.086
 S          -1.76994015414534    0.29685287729064    0.02372195309590
O          -1.01725206106052   -0.69418660379539   -0.70719823811396
O          -2.99637658153885   -0.15536479007625    0.58645647940046
O          -0.85379350889929    0.91300485813792    1.09621917041643
O          -2.03541964575033    1.50533128696030   -0.90389276091057
H          -1.17066043326479    1.75552563098232   -1.33639730466099
H          -0.29457406521796    0.11302973067537    1.57465463877599
O           0.25126668116435    2.05968315538103   -2.04017900802464
H           0.10582158518183    2.41777499664630   -2.91773209582825
O           0.43708197608241   -0.97304808813076    2.00749222306812
H           1.16598240442105   -0.99160905094768    1.35553364864219
H          -0.21359835632761   -1.70678426562777    1.78763619421001
O           1.53009622421377    2.16336339655925    0.43024023483409
H           1.25738815283205    2.40151685085902   -0.46703426001245
H           0.70437261532024    1.98068846412338    0.90181203937554
O           2.46208748733362   -0.31521988362757    0.28459464617903
H           2.19014773932612    0.63569092347770    0.36996393373131
H           3.35324918492357   -0.37077619624913    0.63247942153945
O           1.15987610604527   -0.35278353970515   -2.16140696255332
H           1.81594068321006   -0.45551586974645   -1.45320092311362
H           0.32985177757547   -0.67850871311211   -1.76050643705402
H           0.65852471634257    1.14367548144867   -2.16786107563413
N          -1.53827762074388   -2.57976752540738    1.33727901511515
H          -2.23863768462278   -1.84969555067222    1.22649288509418
H          -1.93940437653172   -3.32558204326134    1.89296341795236
H          -1.35375284583345   -2.93729553218835    0.40786916432532
