    26
        -50.46598345  Gyration_radius:  2.49063660916 Dipole_moment: 3.329
 S           0.27955112713785   -2.13996563273670    1.07750854316471
O           1.59471420589240   -1.71701363065387    0.61283224969829
O          -0.01178880368780   -3.52896075260103    0.93374408566626
O           0.27697409152454   -1.85030734812618    2.66087472467211
O          -0.74394666574233   -1.23736892900483    0.53720737397433
H           0.22702415572582   -0.03341906766532    1.29082833999203
H           0.12621438485684   -2.71956589928991    3.01742631226381
O           0.62633595261190    0.76679681733353    1.68042280464272
H           1.30159178367887    0.43833866141771    2.27629967009462
O          -1.49270738605619    1.95616115020845   -1.32338061317741
H          -1.80796333809180    1.65261325347316   -0.43044126115247
H          -2.16006956488645    2.55571511712737   -1.65817611216838
O           1.17422851044246    2.11684543562448   -0.60633553159562
H           1.05558510390081    1.80040200103652    0.31137365469949
H           0.27120772634368    2.24532464885621   -0.94511654798794
O          -2.16050741367902    1.02366485198241    1.05167219344701
H          -1.90117594483649    0.09753215922462    0.90370581863193
H          -1.49006035760304    1.36496896714783    1.65409987337694
O          -0.92072790465308   -0.63831396168200   -2.08218357583383
H          -1.23213476848045    0.28094789564288   -1.99461747440944
H           0.67163427005855   -0.49071649662209   -1.98460885307493
H          -1.03063132576566   -1.02458452189356   -1.19229269226739
N           1.63292300988315   -0.28485250978523   -1.57940561902806
H           2.38221382618522   -0.47565664729829   -2.23397709106887
H           1.71794195633404   -0.89067679455701   -0.71346909578148
H           1.61357338875514    0.73209124290500   -1.26399120636847
