    26
        -50.46194857  Gyration_radius:  2.51144548488 Dipole_moment: 4.753
 S           1.76943476654150   -1.16051084086453    0.15772833664025
O           0.90167098608489   -2.33285848059052    0.11638507635201
O           1.52812964633953   -0.26152692221692   -0.95030079099472
O           1.73530438072991   -0.51539543004401    1.45828443504063
O           3.25105173212632   -1.69013546007281   -0.03366469400473
H           3.44669998116937   -2.15065858722132    0.77706500512018
H           0.07077298870245   -0.63354422958113    1.67090825463446
O          -0.89958717248610   -0.68329724002047    1.78827925087613
H          -1.07535665128805   -1.59165832572216    2.04083409172260
O          -1.85808882011167    2.14220572516264   -1.25559538339026
H          -2.25767739817535    2.96111655918471   -0.96133000286455
H          -0.88514215380252    2.23240349739307   -1.07046324312620
O           0.69275283144248    1.93412526670848    2.09990055907435
H           1.26473651672806    1.15704496706241    1.98867458166131
H          -0.15872226114849    1.58172541951557    2.37291150846968
O           0.67870341405189    2.30910910128040   -0.59818977127573
H           1.10536434163569    1.46181087728182   -0.80508029743082
H           0.71117983567369    2.37807085098144    0.37620687005800
O          -2.47201422794023   -0.26823971466316   -0.38726652159383
H          -1.51222048699193   -0.98853026654120   -1.25677016186887
H          -2.01655304566291   -0.32203999132125    0.47703474849321
H          -2.36561819146643    0.66533743029073   -0.69379701462637
N          -0.65279397496187   -1.46027178910362   -1.75464323866001
H          -0.90400611231403   -1.94946836617573   -2.60625578520129
H          -0.17075969327553   -2.07517916625982   -1.04412904499202
H           0.07273877835974   -0.73963489449932   -1.90672675814097
