    26
        -50.46106750  Gyration_radius:  2.39316987695 Dipole_moment: 6.668
 S           1.41631046271972   -0.14033251556607   -0.74906240919850
O           0.46604043129293    0.60890323846310   -1.55549207257203
O           2.14897784753890   -1.13654308559995   -1.51226526138137
O           2.45468919058777    0.87551266226749   -0.17013126241178
O           0.76249070226872   -0.78443935087097    0.39459234420595
H           0.13490136706574   -0.08682157797380    1.63395553551259
H           1.93474879720801    1.55641633370851    0.31453959435198
O          -0.23440611882625    0.40931750669916    2.41924627777559
H           0.07832440940780   -0.05281368914872    3.19810062860682
O          -1.28224407723954    2.33994671636999   -0.45704070929929
H          -0.68008308865100    1.79654288520402   -0.99835384134614
H          -0.70754906078543    2.79065670759856    0.16886539849545
O          -1.50591645914568   -1.14280384277792   -1.56574912824709
H          -0.86694152457913   -0.42359616668299   -1.76041427631645
H          -0.57481514965420   -2.21674340975668   -1.32783028216531
O           0.99069657183666    2.51873083743401    1.34401597111347
H           1.52625769671742    2.98555654448825    1.98819479062991
H           0.47330564972422    1.83708505341043    1.83372767895720
O          -2.45264276024984    0.11468352271374    0.56610146203071
H          -1.88532092998833    0.06723588079399    1.34442858928977
H          -2.25084123322650    0.99060868639004    0.17518841343644
H          -1.96895548266702   -0.81669015307546   -0.74937188259570
N           0.29205467224895   -2.91018725678096   -1.17804455346567
H           0.25177883129929   -3.72962031105947   -1.77563106443935
H           0.33596863619653   -3.15943991612015   -0.19401716279587
H           1.14317058890373   -2.29116531015425   -1.38755277815027
