    26
        -50.44280973  Gyration_radius:  2.71052180229 Dipole_moment: 5.284
 S           1.96720227784328    0.27467919309054   -0.43465806062336
O           1.64647013229932    1.51325537508656    0.22936909915371
O           2.70956512217162   -0.68217777188985    0.31848388577041
O           0.62645922403135   -0.34791198179123   -0.90481110516837
O           2.70021066507280    0.56099746562819   -1.75535469275753
H           2.23709644404630    1.38120891535457   -2.14990485920180
H          -0.11422816832836    0.16458128725591   -0.38517991310108
O          -1.03307321006791    0.97732304840260    0.42156507230999
H          -0.34811129178677    1.58343906162480    0.73079874348524
O          -2.83089061572359   -2.48466026411274    0.88518517378482
H          -3.78319277402874   -2.52495190018906    0.98138449398406
H          -2.65503672765301   -2.08345524792640    0.01049594559015
O           1.20094473065041   -1.61400964329269    2.34976186991177
H           1.77379832071420   -1.60608061907610    3.11832792183026
H           1.76021603360391   -1.36222736530152    1.59269226897282
O          -2.20141919565689   -1.02472439970159   -1.33238552806872
H          -1.28391344245492   -1.23889779871512   -1.52904269168269
H          -2.18259583896250   -0.16508707756491   -0.89623448543081
O          -1.36178430075278   -0.70119773514992    2.31288897358996
H          -0.46449228108549   -1.07244853081176    2.41261739784233
H          -1.22834361647521    0.36065611223142    1.21526521210007
H          -1.89878276355197   -1.42250731579376    1.92597105112603
N           1.33804966120317    2.67185109643490   -2.32702568101593
H           1.23230130537186    2.79628184797521   -1.32394472518496
H           0.42476871183966    2.54925344461891   -2.74370766632140
H           1.76878160768257    3.49681078360702   -2.72255771089989
