    26
        -50.46748803  Gyration_radius:  2.48235852274 Dipole_moment: 3.749
 S           1.87426684076764    0.10221309850376   -0.77789060794945
O           1.26522092476619   -1.22042389619611   -0.75574274650519
O           1.80403318231806    0.73740126628785   -2.07380405857474
O           1.32981845044397    0.94831312787556    0.28579639542954
O           3.40832726786516   -0.09701181574467   -0.44546361087110
H           3.44579711246625   -0.52022418349638    0.41408737474229
H           1.59295297877286   -0.19178879558234    1.48800124863513
O           1.73593469516518   -1.08781770816321    1.85979952982557
H           1.54620911296544   -1.66150533449098    1.10221736801387
O          -2.22685718068047   -0.30519845774014    0.96755445462360
H          -1.63545917126837   -0.57077845060089    1.71545650513559
H          -3.11734215283748   -0.53065654225175    1.24114550059383
O          -0.67612925425854   -0.93644065211869    3.02495790567228
H           0.22969489330431   -1.11298105234806    2.68096011639148
H          -0.57767684799112   -0.23454352005963    3.67067060219071
O          -1.29690472979575   -1.29248543393565   -1.44469331677377
H          -1.69927948535179   -1.05780365373712   -0.58861144411150
H          -0.34983872997274   -1.44943349794881   -1.24173597911485
O          -1.08989272293183    2.03830240625785    0.02061486258340
H          -1.61186523664057    1.32422362608769    0.42571388057811
H          -0.15957981697279    1.80714065627120    0.22340756414222
H          -1.01370212374928    1.64890150041064   -1.52584236606393
N          -0.77639685342531    1.08143673316407   -2.39638952437853
H          -1.11431384412491    0.08710911488651   -2.19264281688260
H           0.27708188327623    1.02290758518845   -2.42970879846856
H          -1.16409919211977    1.47114388947917   -3.24785803886420
