    26
        -50.45283519  Gyration_radius:  2.46181162413 Dipole_moment: 7.999
 S           1.35383869524217   -1.98953860189935    0.28572829730772
O           0.16853219846476   -1.81189644210816   -0.60155694632237
O           1.78195818508699   -3.33629875279934    0.41750475456930
O           2.38869948496091   -1.03246763752669   -0.11319075688255
O           0.85071091747735   -1.48586342002988    1.70735961990265
H          -0.00289690714596   -1.01862542326543    1.60892774415843
H           1.83960656787412    0.24743683667778   -1.39496191084441
O          -1.48674766349219   -0.15243596517365    1.61284060428006
H          -2.00879517373698   -0.45195378753100    2.35806190567023
O          -1.83719067101986    1.54844784185012   -1.75780212471077
H          -1.40834645504489    1.94429604983112   -0.98512034146069
H          -2.63262293320767    2.05604251449684   -1.92459608404841
O          -0.09655584712067    1.89919738001136    0.45644375135111
H          -0.66143740507474    1.29551616767741    0.96878255773177
H           0.78684549572261    1.81367494903812    0.89047350598791
O           2.21041404969322    1.07039066118700    1.44843735289762
H           2.16274079126275    0.72626206744586    2.34240084345040
H           2.38194601095050    0.27771084022116    0.88529031839506
O          -2.38158126812790   -0.98601150681725   -0.67273182964266
H          -1.58250646952526   -1.53126845839726   -0.78861854482593
H          -1.93493685070339   -0.49871358238137    0.78515664672936
H          -2.25639111346843   -0.20117268042187   -1.23223674779706
N           0.84039092008665    0.40810792257896   -1.58120871899767
H           0.46609970373698    1.11069445659607   -0.89471251513923
H           0.43142105385191   -0.56700410849486   -1.28204370677183
H           0.62680465326789    0.66547268923595   -2.53862767498827
