    26
        -50.44995603  Gyration_radius:  2.54494728968 Dipole_moment: 4.068
 S           0.94845752629743   -1.85244606501465    0.66979014582602
O           1.07806331165607   -0.43283187687566    0.91736460841103
O           2.11967083229256   -2.54476050055384    0.28099426605300
O           0.35780271588274   -2.50456802309557    1.93956632173909
O          -0.14206942294071   -2.07237354068128   -0.40600548619961
H          -0.78156652244718   -1.29881560331061   -0.53509836362203
H          -0.33465043935950   -1.90355177655310    2.34256952061331
O          -1.75965919965399   -0.15231161574042   -0.90465615556173
H          -2.45537264078948   -0.51955559425735   -1.45227888459777
O          -1.33760528218018   -0.83895597392253    2.99006063623681
H          -1.28774022233608   -0.00017998330383    2.47375503885544
H          -1.03286989684101   -0.63461908102332    3.87645529795634
O          -0.00096749356600    3.16123290921486   -0.43407237499170
H          -0.28161932129147    2.60847368040684    0.31817338401226
H          -0.52608070245901    3.96177151283605   -0.40265048879983
O          -0.92489024977263    1.20514815091683    1.30351765292755
H          -0.07217638222238    0.73085349514114    1.18162754016500
H          -1.48594929283993    0.86548013716528    0.58742209875080
O          -0.18104982665301    1.20404835725550   -2.34933909698401
H          -0.01653127745727    1.99384145572441   -1.80052900694626
H           0.64643894250898    0.66324876913697   -2.29200417957377
H          -1.15965313645909    0.40354685969183   -1.53362667492648
N           1.96249694582392   -0.35322895049755   -1.82733095429744
H           2.88559560093475   -0.18931617512153   -2.21124992267010
H           1.77717454138133   -1.34685002557334   -1.89926627231262
H           2.00475088247130   -0.15328051196710   -0.83318865007264
