    26
        -50.46114341  Gyration_radius:  2.69232703994 Dipole_moment: 2.311
 S           2.50899397668876    1.13345696888202   -0.18057681700606
O           2.56869246765288    0.28210947535269    1.00584105027669
O           2.87295600429892    0.46852842857213   -1.39585096974342
O           1.18705955831374    1.77283684510829   -0.27479903223131
O           3.54953369673250    2.30086792018228    0.08965288968499
H           3.53703255822287    2.39762665420118    1.03781237309528
H          -0.12581548250525    1.51474868692995    0.66040995016893
O          -0.97660981999515    1.36282924234329    1.14000672871220
H          -1.16460758817011    2.17721989555006    1.60799566809619
O           0.26481536812170   -0.00383182333989   -1.97129290544805
H           0.99735343151390   -0.11435504247362   -2.58553210667127
H           0.53793345349253    0.77424139631993   -1.43176680871522
O          -2.35929165923423    0.45279869797466   -1.09732293695889
H          -1.98232907764739    0.88364782519285   -0.31082892118555
H          -1.60576258493629    0.29421440572504   -1.68073157312880
O          -3.03307449867591   -1.88432223466061   -0.03530528857879
H          -3.97715784415104   -1.91071551320010    0.12232132777497
H          -2.85788558565437   -1.04825782330360   -0.53303025878840
O          -1.17706022731700   -1.31746441831507    1.79448170993945
H          -1.20074223935249   -0.34601996962672    1.76742455814792
H          -1.92204562200155   -1.62145781386434    1.22783473456972
H           0.04667147586172   -1.54865158804107    0.89346244332498
N           0.87531820882040   -1.53895764293995    0.20050718587612
H           1.24918216841145   -2.47071279999096    0.05607971933577
H           1.62097118229123   -0.89511242412710    0.59691509781662
H           0.56586865925801   -1.11526735848135   -0.70370779848455
