    26
        -50.45931412  Gyration_radius:  2.52705430502 Dipole_moment: 5.160
 S           1.11217561344239    1.67060984727057   -0.19951438090021
O           2.33542882687985    0.87828816845022   -0.04941651851673
O           0.35443839777250    1.26901152398655   -1.35882228897922
O           0.35338867845400    1.70164393592624    1.03852219242751
O           1.57877576497425    3.16257883257250   -0.46418408180462
H           1.87711517900362    3.46651101527052    0.38787707258779
H           0.67374802304466    0.12256721026632    1.48825634746545
O           0.83410287520450   -0.81100536315912    1.74059009803032
H           1.78108824176777   -0.87023847022748    1.88074944771724
O          -1.56389157288731   -0.69038860399073   -1.41698850743023
H          -1.02838036288404    0.11946452516268   -1.43850412575749
H          -2.34112535929368   -0.47536032233920   -0.86418900828683
O          -1.78598221735186    0.55913962571750    2.33832504911965
H          -1.17453999946302    1.18118903578356    1.91392060255295
H          -1.24742725820550   -0.20993202336767    2.54897885470797
O          -3.51040903877232   -0.07077855769438    0.36340563656676
H          -2.95120996848140    0.23182299667359    1.11136186131090
H          -4.12808400160043   -0.70671518161066    0.72617283846325
O           0.20583560895407   -2.31987210966512   -0.41862254728691
H          -0.59828989089665   -1.85221225313775   -0.77715356843763
H           1.18597605018137   -1.63742617088726   -1.27451705536346
H           0.36125439708806   -1.91694944915386    0.46025919540051
N           1.80365663823393   -0.90815941636691   -1.83576552118848
H           2.21699094660472   -0.24626432460483   -1.11141380021384
H           1.15482490797292   -0.30962455803918   -2.35532945596291
H           2.50053953023345   -1.33789991283772   -2.43399834622564
