    26
        -50.44995595  Gyration_radius:  2.54497379824 Dipole_moment: 4.066
 S           0.62697418491513   -2.00014565369601   -0.62132418741332
O           0.95062447237961   -1.05247731626903    0.42304160859384
O           1.70285871561390   -2.48680342387191   -1.40101222101013
O          -0.12136092876737   -3.18560580656268    0.02748613121853
O          -0.42399717159819   -1.36362931119768   -1.56223456398880
H          -0.93412637561487   -0.58177514488678   -1.17169265517199
H          -0.73887956056842   -2.85115136664167    0.74163965645672
O          -1.71083932754467    0.68814296637127   -0.73404326402779
H          -2.42158597854531    0.83266849572844   -1.36074750712881
O          -0.80783284158993    0.30395628041367    1.80602336969619
H          -0.02882984851874   -0.12369344557741    1.38517854156502
H          -1.37275698983001    0.55112338995831    1.05585041105135
O          -1.60762921601917   -2.25239264136865    1.94387346622463
H          -1.40727419430328   -1.29089942866529    2.03295092956136
H          -1.32396095172738   -2.66905440987925    2.76019556203214
O           0.48907367933387    2.74390399488485    1.55290508776110
H           0.08851306079368    1.90075095853502    1.83362112513611
H           0.08855122205517    3.43307941339469    2.08414036428273
O           0.12700638364794    2.38321928854564   -1.14359974025927
H           0.86130980833351    1.79924055354446   -1.46034766403935
H          -1.00196098037539    1.41211602270164   -0.92918399507322
H           0.37596643046334    2.64956878648833   -0.23858956135672
N           1.98548394710227    0.52373846025748   -1.75999499629978
H           2.94234535593419    0.74422872751104   -2.00933230208836
H           1.66046473188051   -0.18579427957078   -2.40631891244075
H           2.00186237255268    0.07768488984162   -0.84848467325811
