    26
        -50.45644078  Gyration_radius:  2.43011357104 Dipole_moment: 2.178
 S           0.68983845450795   -1.54246332792339    0.65431589994921
O           0.01491046628608   -0.42002910661687    1.27389487822270
O           1.89915428999184   -1.95627843541469    1.26470639539276
O          -0.30378072684472   -2.71015893834797    0.57835246586774
O           0.98955554166697   -1.18695615559663   -0.81957035228194
H           0.21142284658847   -0.74924892968760   -1.28950412521586
H          -1.19617934047578   -2.35603963651881    0.24207103822278
O          -0.96212213302463   -0.08029179137272   -2.05157982355560
H          -0.72110146837340    0.09672737725039   -2.96244169619903
O          -2.40973681648750    0.62073726549236    1.23322300688988
H          -1.49261593833707    0.28987201360789    1.34347756632094
H          -2.74488442270837    0.79519280937058    2.11385325861663
O          -2.42598724011662   -1.62203012544191   -0.33563715377245
H          -2.66405471257091   -0.88559198877726    0.25807306193004
H          -2.11094103228124   -1.19605142954874   -1.14870585636690
O           1.06791493242523    2.00103576822067    0.61994818490017
H           0.71645867000128    1.22442405208506    1.08054922724126
H           1.94991708028474    1.69997376883806    0.32265850305286
O          -1.16232890120778    2.12714345198115   -0.80621380823676
H          -0.29027569968340    2.23576368603000   -0.35247764881746
H          -1.05864049576474    0.83348055539398   -1.59751163952020
H          -1.78616095622128    1.89174883788537   -0.10411528958590
N           3.27593899769960    0.44418450419234    0.14083010304117
H           4.19108836673617    0.65595392128108    0.52125765437013
H           3.40616705039952    0.15329541900558   -0.82067077716822
H           2.91644318749699   -0.36439355543237    0.64121692667282
