    26
        -50.45644092  Gyration_radius:  2.42990788756 Dipole_moment: 2.180
 S           1.21263017296254    0.19902713456890    1.33189016450921
O           0.57619744000055    1.13329626971588    0.42564965418603
O           2.62134525496978    0.29844651194037    1.44079351495479
O           0.55277132510270    0.35075680548037    2.70966441737721
O           0.86222179788602   -1.23884188884023    0.88647699473785
H          -0.11128740422755   -1.35502496143156    0.64815357332881
H          -0.45610214481757    0.38854518017588    2.58446435978885
O          -1.60064136548315   -1.57959076238481    0.27914471180123
H          -1.75530929710422   -2.49199434862699    0.02902420284958
O          -1.86203666664817    2.06046275905345    0.02784070581509
H          -0.91913241979724    1.80492891266566    0.11958045484783
H          -1.88087115262319    3.01618184539697   -0.03886100081740
O           0.73725836653529    0.42083789397579   -2.19422616466586
H           0.76542188823514    0.88766637273526   -1.34564270218801
H           1.49152639100278   -0.19863942745707   -2.12957876244073
O          -1.94411198893505    0.36130962874266    2.17177488057682
H          -2.05405135916018   -0.45888597160945    1.66482820173664
H          -2.10833033350348    1.07748459472842    1.53020792864803
O          -1.82674696581937   -0.10870252035228   -1.78217270998824
H          -1.72892353980443   -1.02285118151010   -0.57179344365416
H          -2.07824726698245    0.73729461603055   -1.38392585825550
H          -0.89836300572912    0.01931137560785   -2.09819112446877
N           2.90408434449644   -0.97177985744150   -1.24800794256368
H           3.82130818492993   -0.92272782533499   -1.67617645290979
H           2.72950270269729   -1.94143745823325   -1.01293938439083
H           2.94988702196222   -0.46507368742104   -0.36797821902286
