    26
        -50.44238250  Gyration_radius:  2.57164548837 Dipole_moment: 6.717
 S           2.06256718066058   -0.75505263841048   -1.13079889265031
O           1.21132594428756    0.39704012423349   -1.32346335771649
O           2.89209074891164   -1.13246835429528   -2.21283340853483
O           2.87563403202426   -0.53311951356981    0.17048212132537
O           1.16639199744754   -1.97254866102785   -0.77033202215578
H           0.56443222330536   -1.72552435817489   -0.01453964496375
H           2.64764746355522    0.39043947703278    0.51541246738919
O          -0.45736419357757   -1.39032568099744    1.17348728347059
H          -0.74815262510781   -2.22398951219610    1.54763888515043
O          -1.85972500675818    2.07186667215193    0.76765658345272
H          -2.45314400257313    2.68962192313981    1.19654394788881
H          -1.19513752481302    1.81435086265162    1.42282107460488
O           1.97960928290955    1.76750750000308    0.80841730861165
H           1.53477529046448    1.72046742893266   -0.05404892844574
H           1.28700702696179    1.59720912802406    1.47384687437062
O           0.01584078981401    0.89278062731526    2.51166102555595
H          -0.11406960992468    0.02105423567849    2.07810992182558
H           0.30020158142183    0.72130249477082    3.41064981798056
O          -2.37019068939997   -0.45838971777747   -0.18077348108997
H          -2.02825670828729   -0.55678959885839   -1.11033512299703
H          -1.26375642161222   -1.02944973512370    0.62485350192668
H          -2.31235032574801    0.49299980541837    0.02054658331216
N          -1.13362528614872   -0.69751557007670   -2.53697194904538
H          -1.46416829765830   -0.27164305946343   -3.39382238512340
H          -0.83578198470319   -1.64042040120000   -2.75559900330889
H          -0.30180086545767   -0.18940348817594   -2.23860920080618
