    26
        -50.43281587  Gyration_radius:  2.69370094808 Dipole_moment: 4.054
 S           0.71766005830840    2.08207000774762   -1.69084933263636
O           0.08297563442725    1.57098094176936   -2.86143237742937
O          -0.00156239373122    2.95568068486014   -0.82843161326334
O           1.29576520320782    0.92070521028322   -0.86108588679922
O           2.03120117118490    2.82426533855121   -2.16731277606582
H           2.27336228984669    2.42533681415189   -3.00010444030034
H           0.83404261919613    1.01374187099038    0.09851674234125
O           0.12578199357880    1.25871737613586    1.28760412522835
H          -0.07984539763443    2.18235537873231    1.09322462952912
O           1.22564845384831   -1.16327250816977    2.12483669018943
H           2.14732337414355   -1.11914964315833    2.38349144787816
H           0.92480949435643   -0.25179877911640    1.98535877792831
O          -1.35679722805984   -2.21919082813021    2.33245146275827
H          -1.59656856896096   -2.25021692201373    3.25967650023317
H          -0.40389715430903   -2.05139923717592    2.29283487351438
O           1.13019760109375   -1.90265723533990   -0.67949049222883
H           1.08266825927135   -1.91180719070587    0.28512080008684
H           1.40065263908875   -1.00807429071558   -0.91495297430309
O          -2.00331503583255    0.00235509420654    0.86947169724642
H          -1.89014490173900   -0.23910073678524   -0.09806415490492
H          -1.93033375165993   -0.84029621332708    1.35708130057365
H          -0.79169430458598    0.75458682879516    1.15059003321178
N          -1.41157262412697   -0.67422704059306   -1.61395632963680
H          -0.66666687889563   -1.35512801933388   -1.47530972818422
H          -1.01942435622833    0.10340270753242   -2.13749625635319
H          -2.12026621579700   -1.10787962918565   -2.19177269862343
