    26
        -50.44307967  Gyration_radius:  2.50832630963 Dipole_moment: 2.704
 S           2.18393469638573   -0.66853240430266   -0.06885901787555
O           1.38961535899750   -0.84747889416953   -1.23731583000243
O           3.12242375097463    0.40038027339261   -0.03342925888450
O           1.29850660311131   -0.60747915981384    1.18111428800569
O           2.99588423061591   -2.01228429357973    0.15753921572790
H           3.80608680822559   -1.76169557501574    0.59530003105713
H           0.39735417457166   -1.12542597262941    1.05219075822302
O          -0.90780654086637   -1.76636263685981    0.97619273743589
H          -1.08057635502851   -2.22709830500940    1.79970841601899
O          -1.93197250897658    0.80795242102770   -1.64473065931609
H          -1.65007716254026   -0.12466853327180   -1.81816549260700
H          -2.67118265706613    0.97986028032225   -2.22917001055752
O          -1.09826378296014   -1.70607418919727   -1.86402427405400
H          -0.15291579855817   -1.48665677627803   -1.87506273651120
H          -1.25340592738078   -2.04902186417586   -0.97552413231331
O          -0.22427931326826    1.75474151626631    2.02212003098724
H           0.42684182405501    1.10067005848871    2.28803938017416
H           0.07884781061711    2.05120442532863    1.12589566509307
O          -2.24503089681011    0.36542981983692    1.01618354576268
H          -1.51739570938073   -0.91765941856977    0.98942373154343
H          -1.61286416825146    0.96408199127401    1.48629212179889
H          -2.22719766839368    0.65713174955271    0.08211963481732
N           0.63114512169528    2.07943650682300   -0.49943268516590
H          -0.06856570154655    1.63037678591670   -1.08202111669862
H           1.47854873048204    1.52548311934638   -0.53663421137903
H           0.83234509132491    2.98368907525516   -0.90775016130308
