    26
        -50.44307969  Gyration_radius:  2.50780070531 Dipole_moment: 2.707
 S           1.76241897711126   -1.39073681474278   -0.41630850511711
O           0.82009563038123   -1.16712941248177   -1.46048232697010
O           3.02389115820466   -0.73539125072154   -0.47762028179068
O           1.12256653583455   -1.13129777339583    0.95226546882308
O           2.04647467285744   -2.95043045494917   -0.36639733425779
H           2.94000895876567   -3.04760858948499   -0.04532850705209
H           0.08587197862407   -1.28090301930297    0.93845985629297
O          -1.36133849188636   -1.40656319346643    1.03141785437305
H          -1.58675224937822   -1.84633424745939    1.85367264619342
O          -1.68835318490381    1.58254553531584   -1.31215802481508
H          -2.37684188597408    2.05838400108874   -1.77811279470144
H          -1.79094665956137    0.63002182004508   -1.55995205334697
O          -1.86626322536440   -1.03382053323679   -1.74668212853094
H          -0.91477677323828   -1.16344891244860   -1.88771680941297
H          -2.02500906864251   -1.37612638315669   -0.85860991691183
O           0.67994722602078    1.53197048527411    2.10139129797454
H           1.07505233859845    0.66817548042891    2.24359177693191
H           0.95872527788018    1.78001017705039    1.18277679913790
O          -1.81483472226517    1.04879185381096    1.34756799623452
H          -1.80591906592516    1.39630362322427    0.43273365364739
H          -1.61356496213638   -0.40136759919465    1.16572177257446
H          -0.95563736948460    1.33905147657557    1.74321566291420
N           1.28106974852706    1.75512676278564   -0.50306274772198
H           0.40078557173137    1.63478688699180   -0.99428694349263
H           1.85943485767829    0.94342449750943   -0.68464625858331
H           1.74389472645912    2.56256555394002   -0.90145016239344
