    26
        -50.45651702  Gyration_radius:  2.48741973527 Dipole_moment: 4.646
 S           1.76807622018516    0.20396801482929    0.46672945422887
O           0.78947189494801    1.04373470705905   -0.25045272542417
O           2.59210122175522    0.95627020301274    1.36267193495226
O           0.93971763120897   -0.78059829503173    1.37282107994703
O           2.48499632837559   -0.63359780961012   -0.49924269481079
H           1.88910744128633   -0.43611260955812   -1.86403286969250
H           0.39148360145256   -1.37061340924290    0.81199474771233
O          -0.90742977754897   -2.14193013433009    0.01918357001449
H          -1.37418982850576   -2.60831665121565    0.71422525755591
O           0.49520220426884    1.60094689043665    2.88181069530592
H           0.69017043646485    1.01014679332241    3.61275285289738
H           1.24585350002177    1.48910864193926    2.26567320062547
O          -1.08665035449333   -1.26014259588508   -2.64140362194662
H          -0.95802508118002   -1.97583069949365   -2.00362458972588
H          -1.61181593315369   -0.60069892235490   -2.16425703605372
O          -2.06502372923860    1.15734143805125    2.14729303711328
H          -2.46240791102084    2.01697303065241    2.29471866331382
H          -1.11479976045022    1.26852486848313    2.37786906489198
O          -1.72079753364592    0.30033533972552   -0.35254909361446
H          -2.06762004752427    0.59499833545002    0.51745869363791
H          -0.80549520805990    0.66634077786616   -0.34350784430328
H          -1.34480151301878   -1.24548029266244   -0.06663308518671
N           1.22789501149412    0.06004677711078   -2.56666158496563
H           0.92980734884472    0.82523496331377   -1.91761612107384
H           0.37966200237926   -0.53006558718782   -2.77204470456470
H           1.69551182509726    0.38941622532335   -3.40317628087570
