    26
        -50.46254540  Gyration_radius:  2.67475332375 Dipole_moment: 2.237
 S           2.42480155455383   -0.50276777512726    1.03400697383328
O           2.54746336596768   -0.75324676195645   -0.40205979814538
O           1.91274182860680    0.82122182413717    1.31201887650069
O           1.70169995049643   -1.56560045048380    1.70665914006057
O           3.90246446935183   -0.54413482345547    1.60990980103561
H           4.09839155376087   -1.47207873311801    1.53353394210261
H           0.14041367283920   -1.40157540181623    1.48420264788907
O          -0.84374724066795   -1.33731731785446    1.35881629257215
H          -1.22309146364327   -1.89507161816394    2.04025652052088
O          -3.25840593022424    0.50211318122767   -1.15957601946301
H          -2.80470888480835    0.87165806781743   -0.36011924115305
H          -4.17594608109177    0.38223519446088   -0.91384573685966
O          -1.86077878760536    1.21358199195350    0.97240048500956
H          -1.49071058013371    0.35675028874618    1.24601118158066
H          -1.10729624715336    1.71947657798947    0.62960750434649
O           0.42380443776230    2.25346146125129   -0.21623807534557
H           1.01019641950681    1.73166473528402    0.39834064323565
H           0.72285032340395    3.16164786634954   -0.15733431557325
O          -1.45964184553561   -1.46629127964205   -1.29287107422110
H          -0.27302761559457   -0.58614973615212   -1.69296917844300
H          -1.28619727867893   -1.57935580581813   -0.33849081871678
H          -2.21422968914636   -0.83765045382143   -1.34924274595742
N           0.56478014558027    0.07745525393811   -1.85185992093005
H           0.36057322784200    1.00668485632023   -1.44563970989653
H           0.78690207902727    0.15091438412528   -2.83835829738213
H           1.40069861545301   -0.30762551637615   -1.30715907656340
