    26
        -50.44096519  Gyration_radius:  2.57280249713 Dipole_moment: 5.620
 S          -0.65170855340638    0.91080887049645    1.94529409316784
O          -0.93300207847904    1.55171186002951    0.69472964433362
O          -0.85848139316321   -0.49539791397366    2.01537215287918
O           0.75115571744439    1.29703106214877    2.42664564497260
O          -1.54050906740532    1.58689728139475    3.04397574995811
H          -1.49048286396139    2.52767642618926    2.89084064594532
H           1.45242478208188    0.92111072054084    1.76496579699520
O           2.35243145029378    0.43631107449393    0.70201597113406
H           3.23255674036350    0.80689783021823    0.79861270148159
O           0.98424568106651   -2.05806826904915    0.58435950900155
H           0.28135258845853   -1.73698482870336    1.16424091405263
H           1.65489409708309   -1.36535845178720    0.57494072737884
O          -0.38898142904152   -2.09026900771665   -1.80375648434361
H           0.16863758352416   -2.24398826411200   -1.01937225691731
H          -1.22851751349292   -1.73586584400327   -1.44410408962529
O           0.61260904162671   -0.03231153271413   -3.06693062331353
H           1.32002122613990   -0.37308910434975   -3.61506042238974
H           0.19851007770978   -0.82833394790994   -2.62849644308898
O           1.12802328143778    1.65941221844548   -1.12600462000560
H           1.92145716557839    0.91045433500808   -0.11107326008826
H           0.94270650498862    1.07169429725932   -1.90574842436337
H           0.28030174874697    1.76241265868324   -0.66718334866361
N          -2.42286607790007   -0.78997335790525   -0.48503991915903
H          -2.06642045593893   -0.91069926766316    0.45721847563067
H          -3.41929709173262   -0.96717505625545   -0.46984397252072
H          -2.28106116203173    0.18509620124028   -0.72059817247688
