    26
        -50.44075671  Gyration_radius:  2.5699005161 Dipole_moment: 5.622
 S          -2.03465134356619    0.25209159001387   -1.17340768125743
O          -1.35184454823646    0.60420263933572    0.04690026990755
O          -3.38975110004547    0.63840731660304   -1.29162956585037
O          -1.18288899050444    0.76171645657507   -2.37280211267866
O          -1.91938889573418   -1.28352210112682   -1.36753538387330
H          -0.93946886766334   -1.44905326069408   -1.34382584030138
H          -0.56744922370517    1.50412289246594   -2.10229900077813
O           2.02478400408153    0.65102713256080   -0.41965619716327
H           2.94185419782114    0.53550740316576   -0.16563841641191
O           0.67736615623698   -1.46162146812315   -1.38551273043683
H           1.13504150018856   -0.69820523717742   -0.96025867574774
H           0.89584616029034   -1.41822709625640   -2.31885972896934
O           0.79559890014466   -0.68383199255958    3.31369256261530
H           0.25787867632250   -0.57927467312596    4.09981945797003
H           0.26834612995057   -1.24022194616647    2.68412307951760
O           0.62813108552239    2.50301587792642   -1.81327395270205
H           1.10109224377110    2.74576405529975   -2.61197563876781
H           1.22062345702156    1.93033295587217   -1.28387068583968
O           0.72873275682788    1.41886075623091    1.63708024533091
H          -0.14446139146177    1.31133625525700    1.23012163802603
H           0.80799828201603    0.71081728778489    2.31583348083653
H           1.54285867511722    0.95062873290266    0.42793392037917
N          -0.72968633578154   -1.87762702684475    1.45030458632858
H          -1.06441086482155   -1.01668008712480    1.02097747737904
H          -1.53874167821354   -2.45941686832969    1.62814528279384
H          -0.16340899556520   -2.35014958455623    0.75561357974915
