    26
        -50.44075680  Gyration_radius:  2.56996463651 Dipole_moment: 5.624
 S          -0.70063229308767    1.18120341254969   -1.92259862053530
O           0.27415608085763    1.17547255528285   -0.85987580943472
O          -0.69133889807795    2.28709611787571   -2.80374413306434
O          -0.59230908363470   -0.16881568386709   -2.69029257041791
O          -2.11026346525419    1.04193907492364   -1.28813900418290
H          -2.04396827874420    0.20817490120987   -0.75083582427396
H           0.30272529641527   -0.59892501382288   -2.56006626494102
O           0.80721416449096   -1.99223898675621    0.28442594958912
H           1.00291993851007   -2.65966586854215    0.94405220159024
O          -1.74191115192414   -1.21690254423952   -0.04843466505856
H          -0.79391639686230   -1.43426425164774    0.11649452930108
H          -2.06038945904788   -1.86902718842751   -0.67611301479071
O           0.98644608321080    0.96734710977191    3.18879204778240
H           1.30617249996356    1.81800304286557    3.49242534337297
H           0.11847012487672    1.13699717812860    2.73957047107937
O           1.55048970674644   -1.53401168711346   -2.27731526107197
H           1.39595691642835   -1.76685148777507   -1.33868415737667
H           1.51816611924521   -2.34788546348588   -2.78436765182595
O           2.10062277775537    0.11890219507343    0.89206768519770
H           1.78615924809769    0.41160216877102    1.77737185853510
H           1.33622402562659   -1.16693475462280    0.56640870396799
H           1.65215901645055    0.68147543827610    0.24245792698083
N          -1.17699479097324    1.42113234444731    1.66000743216415
H          -1.77822773580139    2.23413304816316    1.70685265728864
H          -1.77475542225596    0.60441182850969    1.61356930897454
H          -0.67317502303920    1.46763252445856    0.77597086110136
