    26
        -50.45920956  Gyration_radius:  2.45389467607 Dipole_moment: 2.429
 S           0.09054399328130    1.29175227750230    1.13806358433286
O           1.18602474916503    0.40411251963513    0.75662445548324
O          -0.44970347364087    2.01994743389887    0.02148093461344
O          -0.91445493288216    0.55832261956632    1.90579027118520
O           0.70511387645721    2.35513993120631    2.13180608663265
H           0.95022900444757    1.82902889894631    2.88619175385440
H          -1.63311382875930   -0.06994115365519    0.54338313286576
O          -1.84268805239341   -0.27373985131174   -0.39318675315308
H          -1.71668402498475    0.57915893680229   -0.82439580328369
O          -0.93654708187352   -1.93924775695812    2.83064218049659
H          -1.84043370674494   -2.24712386203358    2.74629805305847
H          -0.95140191808493   -0.98441068167058    2.61753120298919
O           1.54513654525042   -0.18959269530223   -1.81747358870198
H           1.61343636813874    0.11865615864788   -0.88861388146832
H           1.10287016829426    0.56030470999461   -2.30437903012640
O           0.98832618083085   -2.25187281396527    0.99855251530763
H           0.32916048961740   -2.35158364094040    1.71797746388849
H           1.24949135257955   -1.30834036262168    1.02671688197138
O          -0.08696517210272   -1.95748233176888   -1.24124564449102
H          -0.87486278215959   -1.37894595123779   -0.97380560272142
H           0.64552731677783   -1.24778988395702   -1.62355034546246
H           0.35325293080159   -2.24426289501194   -0.32591220677963
N           0.25204962477105    1.94034044642858   -2.73915208841779
H          -0.03237552879011    2.18349473156304   -1.78924792504979
H          -0.57659526760381    1.91759140608307   -3.32002406288595
H           0.84466314764265    2.68648379176262   -3.08007158524177
