    26
        -50.45920955  Gyration_radius:  2.45393735775 Dipole_moment: 2.431
 S          -0.60806670427454    0.11172764107957    1.60916943181838
O           0.72976611561334   -0.33146599216769    1.22545751929946
O          -0.89695767649050    1.45115356451026    1.17169242308475
O          -1.60762331023188   -0.87210646968990    1.19628665362241
O          -0.63703031720488    0.12315250513340    3.18874462891689
H          -0.54243178833768   -0.79711859935321    3.41272430806300
H          -1.65397475287941   -0.30874043666978   -0.36781624197642
O          -1.48098593118329    0.21879460846569   -1.17682241727729
H          -1.42369058885275    1.11672877916083   -0.83089006621474
O          -1.34496289793672   -3.29134581430231    0.11393609239348
H          -2.06593195258405   -3.38363332327374   -0.51107704967635
H          -1.51401555557425   -2.46306644098856    0.60664544905523
O           1.09976034314450   -2.37061305940594   -0.46520645077419
H           1.10412440012055   -1.74044820142771    0.28448145574700
H           0.28083104688284   -2.89708542765919   -0.34608685502024
O           2.06454391464998    1.02523225571850   -0.64126346773606
H           1.74053849538667    0.58776240320763    0.17491586420816
H           1.64721736155015    1.93118198454247   -0.62931722533883
O           0.80433614512282   -0.51203988618646   -2.11419870840881
H           0.96523871018876   -1.38949999129912   -1.55069957062391
H          -0.14120530408089   -0.23057063222486   -1.88186721065867
H           1.43162228436776    0.20523352775802   -1.58641910411683
N           0.69052131241781    3.27801830652967   -0.33259180815493
H           1.16812519783452    4.00242825699421    0.18825541080184
H           0.05371875105898    2.80599086969274    0.31084792824961
H           0.13653270137775    3.73032955192882   -1.04890100934693
