    26
        -50.44075679  Gyration_radius:  2.56997452489 Dipole_moment: 5.625
 S          -2.09676967255916   -0.41989220203782   -1.00483501927983
O          -1.18005944793765   -0.89564239836140    0.00155377215388
O          -3.25090618361695   -1.19937047029893   -1.24970736513454
O          -2.45842434944338    1.05793456560977   -0.67473142889430
O          -1.30970220035712   -0.23720211665815   -2.33004057868522
H          -0.56868215310967    0.37601365242630   -2.07916232442306
H          -2.30296520406524    1.27108141078302    0.29145836620208
O           0.75346313915132    1.64890239894080    1.18908569050737
H           1.55238519848228    2.04616987341953    1.53956754859731
O           2.66765711875401   -2.02581809265690    0.93039355163284
H           2.27984004321620   -1.90235060169490    0.02581679048789
H           2.68294304264326   -2.96995509002827    1.09302227072023
O          -1.89483439604593    1.85305528223770    1.70765981109308
H          -2.14448265013979    2.77381194613564    1.80961869893342
H          -0.91804713500326    1.81895062766661    1.64558056033988
O           0.47258045594466    1.45599055499179   -1.47428807521386
H           0.08945076680845    2.30903522246225   -1.68940964289800
H           0.59607227906837    1.44903786457890   -0.49556200487066
O           0.60423115991904   -0.73595967929494    2.07765432923879
H           0.73517866736269    0.69946277797464    1.56148123571061
H          -0.12894229414992   -0.99463483939131    1.49867799959780
H           1.39754434607455   -1.22048616855606    1.75492174261864
N           1.30169814651021   -1.62501953316203   -1.34946407911090
H           1.54954277591725   -0.74145629621694   -1.77889829877933
H           0.39422616665636   -1.49249757805629   -0.90617459166699
H           1.17700235993772   -2.29916111079874   -2.09421895886418
