    26
        -50.43728901  Gyration_radius:  2.86632148109 Dipole_moment: 4.562
 S           2.75139140040648    1.23673068454936   -0.57461948017654
O           2.92722417424443    2.64566693208517   -0.73287008953221
O           2.08200659176008    0.76039569810715    0.58963464743920
O           2.14194736472127    0.65167013259745   -1.84682584580739
O           4.20000620134280    0.59351737880509   -0.56850964277716
H           4.75424154787459    1.15589457517852   -1.10579998981480
H           1.43229252575474   -0.10210821166617   -1.69212129372717
O           0.36742978162323   -1.08869971712204   -1.59802155399877
H           0.23420851151371   -1.44553791953467   -2.47853386286684
O           0.20932185561041    2.58638504591206   -0.48305869322747
H           1.11190392341174    2.87363500187031   -0.66850256477139
H           0.19080642903051    2.34192997534919    0.44686811756860
O          -1.78651526774455    0.02971892120176    1.38149992105807
H          -2.48767037668342   -0.62668863529900    1.55483660986843
H          -0.94753709969473   -0.46350803915205    1.48837667401031
O           0.52629853339758   -1.40045275979130    1.23131400372922
H           0.46000990098517   -1.64881836436845    0.30148899840662
H           1.16094255662986   -0.66845902929906    1.23984308139249
O          -1.48971551764588    0.55380217201375   -1.16591978375810
H          -0.43679625268943   -0.44360421704233   -1.42633558811653
H          -1.72777764814240    0.38641942659576   -0.21143488459549
H          -1.00608814494830    1.39695207269508   -1.14087964042495
N          -3.53168132252021   -2.10363472088972    1.81760289374119
H          -4.12559941222489   -2.00597246394843    2.63106960559377
H          -2.89435640391994   -2.87256724547199    1.98397049168295
H          -4.11629384207938   -2.34266669338337    1.02692786908117
