    26
        -50.46049275  Gyration_radius:  2.43446839907 Dipole_moment: 2.646
 S           1.43043108080870    0.78649869895495   -0.88986948636437
O           1.37584677825312    1.60195047393321   -2.07804064393026
O           0.83530258382670    1.42017280978654    0.27751562899107
O           0.94067052141111   -0.56868052303752   -1.06794661691214
O           2.99000020897402    0.64255851793372   -0.56155638123130
H           3.37539057507075    1.27946250855574   -1.15467849887807
H          -0.40534576706658   -1.42217767863720   -0.76370536078727
O          -1.22158588262523   -1.92966619848787   -0.53578610137359
H          -1.26328393269551   -2.65447508559574   -1.16078985083955
O          -0.70301028914543   -1.50058071827576    2.13740970853854
H           0.29215077103191   -1.43358188639422    2.07481745019622
H          -0.98567408806188   -1.90435825076181    1.29908779716588
O          -1.25029579470472    1.73928933019879   -2.20870399441318
H          -0.27503130929133    1.64362739453542   -2.22237773232757
H          -1.42206268547872    2.67977257990255   -2.28779812635377
O          -1.26761314355902    0.86458173249987    1.56800084592943
H          -1.07072262161733   -0.12138932978145    1.92605187522884
H          -0.40912552528197    1.15124150430490    1.09928897591078
O          -2.68328856503636    0.35964369431290   -0.43537583917450
H          -1.95915453799118    0.72755480657438    0.78265834157868
H          -2.25037060098784    0.88509980859014   -1.14452897665133
H          -2.37387056042442   -0.55632777123514   -0.56626767791736
N           1.84782467796959   -1.02756914208657    1.60846307522381
H           1.72393812353815   -0.96385156195924    0.60106186040408
H           2.65699201225166   -1.60955394388447    1.78555809170981
H           2.07188795083564   -0.08924174994277    1.91751162626824
