    26
        -50.46049281  Gyration_radius:  2.43450605762 Dipole_moment: 2.647
 S           0.34631643969276   -0.56283058720637   -1.73762762031223
O          -0.61103924731353   -0.75117865290819   -2.79954468631599
O           0.52062373784964    0.83002298888206   -1.35288392255779
O           0.13453999465768   -1.41276339748721   -0.57969363254715
O           1.74673344223408   -1.02278227640396   -2.36057295671757
H           1.53055049373354   -1.11481079222615   -3.28291617583507
H          -0.50862814895494   -1.30054841913673    0.90584870249936
O          -0.87287507685968   -1.19799296707383    1.81828204003927
H          -1.15920248304187   -2.07193175476820    2.08653704974877
O          -2.68038812530206    0.22306956947826   -1.49520742100684
H          -1.94271128812904   -0.20837100648957   -1.97493887384436
H          -3.04376202621588    0.87106010598303   -2.10209740447664
O          -0.11758743938069    2.05185748392927    0.76749558184872
H           0.16817240058038    1.63080687221077   -0.11555509414825
H           0.45089806975278    1.54188884673341    1.51338503612665
O           1.13080667105746    0.61027377529326    2.37979351373688
H           1.82007986189385    0.25015399015468    1.75194499500328
H           0.46598266289586   -0.09466782137366    2.46188420020261
O          -2.34939901004613    0.95008567174845    1.04711921657235
H          -2.58097496434386    0.69305518723248    0.12693707833036
H          -2.02202564562726    0.13379395767541    1.46935240486872
H          -1.10624672394849    1.71134980489298    0.90972556789612
N           2.60400736653410   -0.34419332983914    0.39794938019147
H           2.78200279118831    0.40545109188908   -0.25971764549637
H           1.85859270325984   -0.90056270172693   -0.01326833252345
H           3.43553354383166   -0.92023562946596    0.43776899872343
