    26
        -50.44202436  Gyration_radius:  2.61670351037 Dipole_moment: 4.649
 S          -1.48045456935525    1.76859382630432   -1.53673126356992
O          -0.20579116600030    1.82885251090017   -0.85388885555727
O          -1.60508950223057    2.50165661379123   -2.73813747355377
O          -1.80106237218186    0.25777212318374   -1.77213712207180
O          -2.60239706546080    2.15481853453565   -0.54759689162530
H          -2.36211668011570    1.67965193058759    0.29138904696941
H          -0.97503784419120   -0.31218408684266   -1.83556195853126
O           0.25120957372708   -1.29917249483954   -1.79935672376767
H           0.45824780102260   -1.64403172088879   -2.66931371091678
O          -1.27822103529299   -1.84197292949021    0.41290526207385
H          -2.11362522025417   -2.10503522838449    0.02234504100827
H          -0.63766621169345   -1.79978716537186   -0.31812824250986
O          -1.38935436129866    0.75552768076144    1.26852155176798
H          -1.44886511903032   -0.18045912227028    0.98604124197415
H          -0.64776292931841    1.13343399057230    0.76634912039156
O           0.29747798317575   -1.07960576738717    2.73701672533209
H          -0.15040598079820   -1.69559637024857    2.14666170128062
H          -0.26588919186354   -0.29744731931790    2.76785133655598
O           2.05226122412877    0.35002515324019   -1.14958324522000
H           2.34620334830501    0.16069476581753   -0.21349434245879
H           1.03663055715445   -0.68573016773937   -1.53905891012697
H           1.44985595682578    1.10793545343981   -1.08646255798992
N           2.70724478775219   -0.14179554044320    1.39731110766811
H           2.99363117444578    0.70930923580135    1.86521102709566
H           3.46389446800713   -0.80815832116402    1.48831934448444
H           1.90708238453569   -0.51729556454167    1.90952880128420
