    26
        -50.44403654  Gyration_radius:  2.5393910629 Dipole_moment: 3.671
 S          -1.01601813161559    0.68051432066384    1.93991888328349
O          -1.19314130239772   -0.59333506519140    1.28339929504548
O          -0.43855949083892    0.66629540171002    3.23217152488181
O          -0.13860654042862    1.57038194539281    0.99296006520611
O          -2.34275657930627    1.45198527355238    1.90902202646443
H          -2.77903061179121    1.18125891269050    1.03899968867291
H           0.82271084919973    1.16002081702672    0.97801692211945
O           2.09979141330761    0.46596027485939    0.95105921805804
H           2.55013537609272    0.65150770916008    1.77799513670684
O          -0.95056318093022    1.83549139661817   -1.55775256978500
H          -0.98411361013684    2.73361782752713   -1.89217628849102
H          -0.64067290764265    1.88250283714462   -0.63270013456456
O          -3.02082520789288    0.47784518400412   -0.35472797563846
H          -2.52677010600869   -0.29977155408070   -0.05145228991563
H          -2.45129865567537    0.91490607370395   -1.01296852049405
O           1.45852089580199    0.32111330259070   -1.94410194166338
H           1.86728018591036    0.50302936043292   -1.09114627842397
H           0.60982814423290    0.78386649047594   -1.95197317994091
O           1.18662400485277   -1.88556616357313    1.08765173542399
H           1.81525226644002   -0.52870067264965    1.00275413951374
H           0.26452065761720   -1.63802576688944    1.26677520873633
H           1.19312177747211   -2.23205877778941    0.15157146974945
N           1.14926015079535   -2.52840310958287   -1.50854830090350
H           0.28175118453934   -2.89052074704386   -1.88274871593335
H           1.90452451418204   -3.10134833165476   -1.86178319619925
H           1.27903491436661   -1.58256693910594   -1.87021592197337
