    26
        -50.45240721  Gyration_radius:  2.50434600919 Dipole_moment: 3.555
 S          -0.26525964094399   -0.23424715337450   -1.50784602968236
O           1.04039699035927   -0.11660195065425   -0.90275587130791
O          -0.70259666733528   -1.57790168562857   -1.71498944382279
O          -1.28455554210843    0.53489274912649   -0.63746450779540
O          -0.31840861923644    0.53156145973958   -2.82395639054930
H          -0.30722436394199    1.52895824141270   -2.58433193947303
H          -1.02780759177942    0.55763949021532    0.35869153619898
O          -0.73153469916269    0.60893920228412    1.82321331058802
H          -1.57531043150036    0.65180237473003    2.27902401250135
O           2.10896861333547   -2.10148315417003    0.55166612444470
H           3.02096502245305   -1.85070328734891    0.70643951938705
H           1.74363558625712   -1.44282475593365   -0.06950387896092
O          -0.40562313945988    2.92096036843090   -1.99917442175063
H           0.17792774322097    2.87998718175944   -1.17733191962245
H          -1.30995472022973    2.97202808831539   -1.68012212669816
O          -1.70923268244514   -2.83870517993842    0.42208157642829
H          -1.61953518523481   -3.77745746535515    0.24672376277235
H          -1.40752240772469   -2.38831925772606   -0.39114722966822
O           0.00706699475226   -1.80299780602982    2.22452029775262
H          -0.36713901358593   -0.32018714213498    2.03035344137564
H          -0.67902893521093   -2.25908947626846    1.69354326449622
H           0.84357409258358   -1.98180194433559    1.75179024271694
N           1.04614174670575    2.50901872936442    0.15719352518234
H           0.51979239661465    2.39642492043699    1.01594917176519
H           1.88852608366437    3.02761313218393    0.36993156895175
H           1.31373839995097    1.57249434089361   -0.14249761523753
