    26
        -50.44048297  Gyration_radius:  2.56304475002 Dipole_moment: 1.238
 S           2.33642190955688    0.25307264468925    0.48908526933075
O           1.51907059569245    1.41789399652206    0.57204707396665
O           3.18109568526771    0.09134823029922   -0.64536537616947
O           3.27124904681566    0.25605458472850    1.77295265184542
O           1.50553190671382   -1.01420379557237    0.68755393788540
H           0.63619066535588   -0.87499831604905    1.23402477863008
H           4.04265337865595   -0.25878368631724    1.54596949468165
O          -0.63075938121780   -0.79017082763230    1.99552938145665
H          -0.70252245134801   -1.58974699122401    2.52065115697163
O          -1.90586082854537    1.55989827533101   -0.71408996293791
H          -1.53949545151436    1.82277944114392    0.16751012975925
H          -2.62404852090506    2.16714374140933   -0.89597894976266
O          -0.76869342008095   -2.24700083984641   -1.72828791402194
H          -0.20051219753931   -1.44205787792992   -1.85473519667016
H          -1.14416678720629   -2.44991537769853   -2.58617288481441
O          -0.86048958086660    2.03161006694676    1.68165687537355
H           0.05575012006775    2.03946220410394    1.35936374137828
H          -0.95670052986637    1.17551438748677    2.11669376264788
O          -2.28059612546613   -1.00846637499911    0.08310921846701
H          -2.25454484552066   -0.10848612651282   -0.29987636554949
H          -1.79221943709195   -1.57480369197002   -0.55760200030188
H          -1.33426084955757   -0.88643990165090    1.24447328954117
N           0.50043310385084    0.10302893032464   -2.05087139553470
H          -0.10323084530452    0.76584853874303   -1.57342353437767
H           0.65359705750289    0.45965729950123   -2.98677670798034
H           1.39610778259321    0.10176145665951   -1.57744047350618
