    26
        -50.46031070  Gyration_radius:  2.45289974483 Dipole_moment: 7.971
 S          -0.43144733940369    0.55819660821503    2.28589139752097
O          -1.16544028386049   -0.63986564542277    1.94242298880391
O          -1.11890595784411    1.54021206341150    3.05934936663468
O           0.80203061377195    0.06138405211260    3.19926647193022
O           0.23115918816275    1.10469868582104    1.08423246004748
H           0.77649935091497   -0.44450736273784    0.88504806049784
H           0.68759412708397    0.59671704714459    3.97726418689462
O           1.15218762014383   -1.33143095976232    0.69139834002030
H           0.84879544361249   -1.85918156791325    1.43449013871632
O          -0.09306475534380   -1.96244348344935   -1.54568790962104
H           0.36814435589246   -1.78370621693347   -0.68322392124374
H           0.07740198996638   -2.87858021744933   -1.76576877425239
O           2.35276067033658    1.05659299867532   -0.55050901443570
H           2.68732737592655    0.21178453102892   -0.23328468183861
H           1.69656271641588    1.32556117075924    0.12138335193732
O          -2.43375340189959   -0.74207149332834   -0.40205851324676
H          -1.82277165952221   -1.31697853229002   -0.88177368931959
H          -2.12057333660520   -0.75362316505044    0.52594525929381
O          -1.46681578352214    1.65328636152792   -0.89472140062348
H          -2.04748149161661    0.85979901782204   -0.76805487077662
H          -0.94190874632447    1.69083970086816   -0.07042051394480
H          -0.42460883247253    1.11933633810123   -1.80595201594842
N           0.40418615262957    0.60720417226904   -2.31860470327435
H           0.21141741446753   -0.40791432991373   -2.26437065106197
H           1.26638648939120    0.81413034829970   -1.74536170740374
H           0.50431807964790    0.92055987830409   -3.27689965525433
