    26
        -50.44202436  Gyration_radius:  2.61690100517 Dipole_moment: 4.652
 S           2.10403310288716   -1.80463983476214    0.03756165747199
O           1.91507122921903   -0.44714778639182    0.50251022885505
O           2.96154935470128   -2.63348106961621    0.79520855306489
O           0.68459596983052   -2.44452260532053   -0.09162844768582
O           2.54710444075997   -1.77515739473979   -1.44192778166305
H           1.96267260301421   -1.08764518960712   -1.85798181473067
H           0.01195852086226   -2.03319283415360    0.53252314859243
O          -1.13818251269476   -1.35230146936256    1.36480740586728
H          -1.42161199447229   -1.90105868875569    2.09771631279966
O          -1.37317184116818    1.99649577462799   -1.69561291893964
H          -0.52520790618533    1.77293984130168   -2.09697425801458
H          -1.85865612053731    1.16587024266016   -1.64167792198724
O           0.81812134510568    0.11456256304053   -1.85095996001921
H           1.13410248477529    0.31151056637065   -0.95301345375574
H          -0.06762568251505   -0.28759312449083   -1.73612902009532
O          -1.67208617581792   -0.86842103450143   -1.28259230441022
H          -1.77321792192040   -1.75491538987558   -1.63410181401616
H          -1.65025050362934   -0.96084121952131   -0.31435632711442
O           0.16525718632911    0.60294368970343    2.29423811219716
H          -0.67154681824869   -0.53427012067414    1.78194644977241
H           0.99154347843336    0.37335197056100    1.84062179250810
H          -0.15548917796783    1.44450545294500    1.86120647325766
N          -0.66492647118465    2.79954365560158    1.01256821330091
H          -0.96942279124437    2.57097065640935    0.06458548763651
H           0.08504129603480    3.47544876654087    0.93482624116234
H          -1.43965510436990    3.25704460199822    1.47663591594703
