    26
        -50.44199823  Gyration_radius:  2.56669456926 Dipole_moment: 4.100
 S           1.91906292537020   -0.62104180464354    0.45662442625718
O           1.23108264830400    0.60378934894280    0.76434453888140
O           3.22753615677300   -0.48967494479875   -0.08477252808656
O           2.00297780999429   -1.44806112837788    1.81003190474797
O           1.07196392895014   -1.53956874265162   -0.38562555351939
H           0.06064364419514   -1.56406834799956   -0.03198671464689
H           2.55856190521023   -0.97545772829513    2.42528351745667
O          -1.26991038013917   -1.60386890396566    0.39254078379488
H          -1.66275589560428   -2.39912682112078    0.02664602228561
O          -2.85719711852285    1.68121728147084    1.44952860644047
H          -3.61453951130052    1.62963377294168    2.03312251629665
H          -2.10285654161544    1.27676100843630    1.93156008522630
O          -0.06542310846167    1.53636722640956   -1.48905705176091
H           0.56742371518684    1.09497933786585   -2.09358232558980
H           0.36017504147275    1.49106300811174   -0.62213784096312
O          -0.82787702155476    0.23799669785007    2.49384298536974
H          -0.06508683091520    0.52800422893121    1.96634957540153
H          -1.08474925208544   -0.60962218352571    2.11154068097826
O          -2.30166621148221    0.32539134542485   -0.80903558285560
H          -1.52672860002991    0.81638261126022   -1.18741365067808
H          -1.72808725796762   -0.78846476690159   -0.12291743549873
H          -2.63507203545357    0.90579715320189   -0.09209167931893
N           1.96754830342524    0.13944876417590   -2.68052637625577
H           1.68138719711674   -0.78534150297406   -2.97729114041807
H           2.56028689034743    0.01856686941318   -1.86509782098890
H           2.53329960877978    0.53889821081538   -3.41987998254941
