    26
        -50.44048321  Gyration_radius:  2.5636749819 Dipole_moment: 1.226
 S           1.88408705628029   -0.59952167484675   -1.36303358991044
O           1.97222912102200    0.61020783039375   -0.61422999399246
O           1.62816708104000   -0.51970792027401   -2.76118264066580
O           3.27066890101954   -1.35248450511282   -1.18264264140463
O           0.89393786468780   -1.57027822159168   -0.72065238285924
H           0.75394217113942   -1.42922388438364    0.29641647247385
H           3.37165495727969   -1.91928295970344   -1.94436688783324
O           0.47393013574486   -1.31457038289966    1.74560126349909
H           0.37792904708133   -2.20506513340881    2.08916351143665
O          -2.61993830184935   -1.08131614371277   -0.78137590494148
H          -1.96276851846967   -0.47864109820731   -1.21933755837464
H          -3.48361454455396   -0.81683701536753   -1.10110833585060
O           1.46787537456823    1.34857478015034    1.92924608734950
H           1.84279064392766    1.23667810756595    1.04020709177236
H           1.27399505089263    0.45062466300743    2.22503614629956
O          -0.89772508968473    2.16522750037730    1.03925750119977
H           0.00342429265140    1.94797147065877    1.38753200135072
H          -1.17178376802831    2.96497798580301    1.48970379154286
O          -1.84916941253374   -0.30389138400842    1.64843473771126
H          -0.47791107215075   -0.91188795073393    1.74664879242961
H          -1.64636799624151    0.63078742341311    1.44232706358559
H          -2.21160203822152   -0.67882559414077    0.81318786063223
N          -0.91544192057154    0.76463689744671   -1.74226639230023
H          -0.06262739020310    0.33475000928861   -2.08031158328816
H          -0.68145836726432    1.31979270439315   -0.92451223731875
H          -1.23422325782730    1.40730448571097   -2.45774217209657
