    26
        -50.44404994  Gyration_radius:  2.47982284027 Dipole_moment: 5.982
 S          -1.21587459815157   -1.59394559934625    1.30261211465672
O           0.18662907959385   -1.52221281189351    0.97741261436594
O          -1.57438992993688   -2.36851912745691    2.43084467198167
O          -1.74568989575859   -0.12949826689594    1.43222883910180
O          -2.00104960547380   -2.07582741409668    0.06160231517318
H          -1.86863611668344   -1.37052291823987   -0.62480740509458
H          -1.00978234842952    0.49862167600112    1.68651621120538
O           0.11501517995684    1.57988855432815    1.96172285953233
H           0.15390194839369    1.85016700876332    2.88015668998562
O          -1.75965797065092   -0.08779793235257   -1.61002349862011
H          -1.22137487734061    0.65259562238046   -1.26404143169201
H          -2.65539203885637    0.24578121710767   -1.69649428236452
O          -0.44561018669639    2.11595911844622   -0.65328866085160
H          -0.26554523966026    2.01884364642164    0.29926020900440
H          -0.71358558023691    3.02514553994281   -0.79519331044338
O           2.13095319851287    0.95092418622229   -1.22149079443482
H           1.32225423764518    1.47706037662948   -1.22698084375580
H           1.85829362291694    0.06582679348740   -1.55988507377782
O           2.19231122854107    0.27962499393918    1.34349908875281
H           1.73087740971412   -0.57099641774506    1.27515288824457
H           2.35057626246568    0.55982139013267    0.40479318413878
H           1.00459922456287    1.09467076959890    1.76094513199720
N           1.01629755492356   -1.44944429587287   -1.81301655903999
H           0.77401040929988   -1.64853917748325   -0.84461472338797
H           1.49324203213471   -2.26031993947478   -2.18527946551746
H           0.14762700882059   -1.33730698189410   -2.32163077944948
