    26
        -50.45460295  Gyration_radius:  2.44618296974 Dipole_moment: 6.216
 S          -0.66885645365504   -2.09891167965105   -0.48730935828485
O           0.03202793196015   -1.39448544032921   -1.57903637978529
O          -0.99493868589227   -3.45231506989545   -0.76502242689137
O           0.12296634814066   -1.93164553129032    0.76201216906229
O          -2.00415873906868   -1.31689146072078   -0.22897902333556
H          -1.89636010629890   -0.35183010253085   -0.39755435006590
H           1.48846487708302   -1.43077891055321    0.41169545345388
O          -1.97168796888915    1.32021387614387   -0.50052128060809
H          -2.87188357721134    1.60046648513898   -0.33068977572279
O          -1.04056638101814   -0.46971534497392    2.61376153914976
H          -1.96364846271113   -0.72825330235326    2.60148128513164
H          -0.59075961939573   -1.07838455851491    1.98698219697425
O           0.23539059288299    1.21034048154118   -2.08444016311478
H          -0.63159937122241    1.52223328526428   -1.78719382080163
H           0.14476940670373    0.23434710810945   -2.07290897986236
O           1.86053833252569    1.64656976858696   -0.10805784687976
H           1.23548381541793    1.55514978650016   -0.89201942911263
H           2.38766557861843    2.42861812022256   -0.27505284938212
O          -0.45278867529847    1.89423206029671    1.51201226043935
H           0.44718134257972    1.81314666508257    1.16350289573502
H          -1.42435135739077    1.61546193035236    0.28995642295695
H          -0.61643108302933    1.09194135804461    2.05608769400961
N           2.19894376725640   -1.01554208937610   -0.29278845695063
H           3.08228339982812   -1.50998920700066   -0.32998722764736
H           2.30516310465363    0.00634390094112   -0.12511156615584
H           1.58715197343206   -1.16032213904449   -1.14081897231009
