    26
        -50.45214751  Gyration_radius:  2.46446461832 Dipole_moment: 3.229
 S           0.31979428689596   -1.20794692130061    1.53541315094584
O           0.98999356203167   -0.24058198828160    0.68478018264855
O           0.75947825259683   -2.54833967021859    1.37885523216209
O           0.43208934615858   -0.78165927893481    2.99794644921205
O          -1.20359742559373   -1.08987351048605    1.27832454227072
H          -1.45068863555592   -0.71435238168333    0.35991246303599
H          -0.12409528877889    0.05966386897675    3.11313977609952
O          -1.90856494692952   -0.10232774625982   -0.94520332305906
H          -2.68718584405319   -0.55947323532991   -1.26772526039555
O          -0.61852412253567    1.89893758164199    0.54380170927668
H          -1.28182660116435    1.55511520486128   -0.06786695625448
H           0.09647382813543    1.23536734328362    0.53192981762354
O           1.45583791246766   -2.11208010904998   -1.27878904776226
H           1.34129158442514   -2.92272580880941   -0.77541113136727
H           1.50273734947383   -1.41735150044942   -0.60682118020685
O          -1.12161915400937    1.24074099131275    3.05083279482225
H          -0.97121077339704    1.65858872691889    2.16442115874164
H          -1.99752976697700    0.84798026544958    3.02213461333758
O          -0.10428016755143   -0.41045892354721   -2.69969417553178
H           0.42203366216484   -1.17432310691974   -2.39969037920825
H          -1.18928463813075   -0.22339585685142   -1.67303593408766
H           0.48549523660233    0.36533163816997   -2.53350736089797
N           1.55023056201880    1.51800727716672   -1.76991319251102
H           1.77348612472824    0.99470471235721   -0.92958140526610
H           1.11030417452953    2.38285074341145   -1.47941257359437
H           2.41916148942641    1.74760168381330   -2.23483996156730
