    26
        -50.44561210  Gyration_radius:  2.44527078591 Dipole_moment: 5.704
 S           0.88053437846919   -1.32486173037060    1.51872238093530
O           2.21205681759789   -0.80992268626742    1.65318338837658
O           0.33269072759376   -2.08848766072247    2.58873308575494
O          -0.05933883210795   -0.13074132305595    1.20007229993742
O           0.79051908548039   -2.20505768037195    0.24415738055057
H           0.75118908125315   -1.63880680907096   -0.58203347788049
H           0.50176136442298    0.71788760802708    1.19582762632720
O           0.42720202562805   -0.75142433082352   -1.84236685446663
H           0.38479517618948   -1.28638496003702   -2.63726257891860
O          -1.97095346967194   -2.19168678649603    1.11607822037078
H          -1.25399578726753   -2.11365685563785    1.76531027267614
H          -1.94720938544339   -3.10008785137797    0.80804579720916
O           1.58607697630424    1.68819446573421   -1.55095102755845
H           1.15480638363146    0.82230218768080   -1.69592116527440
H           2.40313132180662    1.67762894686574   -2.05198057817590
O           1.62081987328683    1.75814816548697    1.14632935924353
H           1.71686355468530    1.86842622419156    0.17697587790749
H           2.25669223444809    1.07707280453530    1.41967946448020
O          -1.93555715236026   -0.43113482186159   -1.03253745545449
H          -2.00924870813364   -0.98093748221819   -0.22815304572123
H          -1.88958193819261    0.50656554457577   -0.72314457506925
H          -0.56096136624776   -0.60114851261354   -1.54965685347937
N          -1.44696559537767    2.14769850584372   -0.32397791708112
H          -0.55689388204412    2.36208976075055   -0.75820073020431
H          -1.30054223094660    2.12621706181975    0.67742372525924
H          -2.08789066298298    2.90210820540281   -0.53435264974028
