    26
        -50.45462860  Gyration_radius:  2.52343088846 Dipole_moment: 3.152
 S          -0.52570890410359   -2.31776673750472   -0.95829300945100
O          -1.61509695166409   -1.40460022506461   -1.30612347854911
O           0.77054993539829   -1.76648967295827   -1.28854871771454
O          -0.63793257335306   -2.76963415801682    0.41509924580445
O          -0.71954900949935   -3.59284003745021   -1.87055348617823
H          -1.55190087235899   -3.91787919742215   -1.54562384790155
H          -0.78143504956175   -1.51987084279896    1.38272477469503
O          -0.78262813786859   -0.72726512970481    1.98306164430021
H          -1.15654375694792   -1.02787519217804    2.81278763719293
O          -1.22272894553872    1.05273023002514   -1.50387172754694
H          -1.45792761635563    0.04387577527972   -1.48202229507917
H          -0.21047003842223    1.07213378033913   -1.69706695565880
O           1.29038545157078    0.79742190626172   -1.77641886288699
H           1.61752524866970    0.81221121745604   -0.86126901885437
H           1.23970109917181   -0.15937292118112   -1.96486338835501
O           1.67416586808318   -0.22384236556945    0.77871004493419
H           0.95626561561246   -0.34818597654070    1.41678995491911
H           1.55650923605355   -0.95159418470075    0.14432798717207
O          -1.29522155330790    1.69956321510689    0.89489119472871
H          -0.41458638637051    2.14760828486327    1.02851501086762
H          -1.33401508834441    1.38564951009272   -0.48543254648876
H          -1.22236495405490    0.83338327076142    1.34338367775676
N           1.18927021479278    2.67393000012242    1.11844225768718
H           1.70978190912853    1.80291309032446    1.17514550929353
H           1.40711480722561    3.22326976594802    1.93951499150638
H           1.51684044203872    3.18252660451592    0.30669339380513
