    26
        -50.44258123  Gyration_radius:  2.49010780696 Dipole_moment: 4.863
 S           2.19034922734899    0.34576558853122   -0.88095911481572
O           0.98620419514204    1.08908528619840   -0.60013837309940
O           3.30803895176321    1.08438349224779   -1.33442054102959
O           2.53139534702800   -0.49683231979928    0.38301845026218
O           1.85227446763941   -0.75874880342175   -1.91379476276888
H           1.20843635286801   -1.36362496220484   -1.45053208838735
H           1.99122087091504   -0.14019834274694    1.15109683464474
O          -1.09012148056771   -1.14209001606006    1.47500076657997
H          -1.66488849026885   -1.69164014967010    2.00976231893086
O          -0.84444688905151    2.52623482797690    0.81873368315165
H          -0.81150429088832    3.38551827327238    0.39620238234569
H          -0.11434404873652    2.01208099515779    0.43331504108690
O           0.33468324787210   -2.29079670918088   -0.48075794439499
H          -0.22811874349363   -1.83185412243364    0.18687202734778
H           1.01119321853304   -2.75854218234157    0.01419099018900
O           1.03529605429390    0.26449458253659    2.31482429254070
H           0.18133734969878   -0.14625998031081    2.05467253917869
H           1.26015327128674   -0.06791567559269    3.18610023644767
O          -2.58837920955809    0.52551268079650    0.27939693892750
H          -1.71260588003181   -0.47427709182786    1.00595068556050
H          -2.13763394588600    1.35202084469944    0.54254719174913
H          -2.30158622836937    0.36930825863743   -0.65253089778866
N          -1.31451747063444    0.08374178089234   -2.06267765301848
H          -1.50009882947017    0.51780426030205   -2.95776918182264
H          -1.11698595146730   -0.89503223940515   -2.23185667589141
H          -0.46535111600894    0.50186173373157   -1.68624714592189
