    26
        -50.45146370  Gyration_radius:  2.53176129961 Dipole_moment: 7.045
 S           1.44905390054673    0.02485410244585    1.39566231675577
O           0.63043357686824    0.94284260473692    0.62387394164838
O           1.19954526058973    0.03389828478238    2.79594130374788
O           1.23724029043865   -1.40014375729169    0.80747015581424
O           2.91218374210266    0.26892274275579    1.07927064376382
H           2.97674457578563    0.19689820364374    0.00986761830131
H           0.28900203958316   -1.57546920529509    0.50560141716137
O          -1.11267099757465   -1.87704135963549   -0.07444528250728
H          -1.41878624940955   -2.72616350411051    0.24788135717504
O          -2.48060462137896    1.23676315285962   -1.67251232960320
H          -2.98586715560044    1.03780404537842   -2.46163520026894
H          -1.56331785340530    0.95358385936680   -1.84327165429142
O           0.03259002475189    0.06318107769089   -1.77068978567329
H          -0.34304523681396   -0.79247186294017   -1.52435136019546
H           0.20362355673751    0.51119413664153   -0.91260780303154
O          -1.32834204146023    1.25117228980392    2.45770529501729
H          -0.68578414382703    1.43634197484491    1.75518571765474
H          -0.80556971747780    0.82042275723132    3.14163765597073
O          -2.80735983947078   -0.13505046577010    0.68187925364825
H          -1.80311579688840   -1.19073536365573    0.24589160241371
H          -2.41046541295158    0.38317405625888    1.41399035713576
H          -2.83887150775280    0.47152523389919   -0.08230626710393
N           2.92933975049991    0.04488172527064   -1.44775785318035
H           3.40530994551611    0.81090340217310   -1.90575850778233
H           1.95212509156046    0.03506375997826   -1.74886153139136
H           3.36660881902436   -0.82635188108184   -1.71766110113687
