    26
        -50.44410007  Gyration_radius:  2.49520723833 Dipole_moment: 7.232
 S          -0.92753972787617   -1.75431116214765    1.46774340496000
O           0.34492330980453   -1.16080974340714    1.13865273544176
O          -1.03335587925582   -2.41577015016945    2.71271725495663
O          -2.01271962816844   -0.64233883028110    1.32660443309958
O          -1.33657974959214   -2.71811285312590    0.32761113500632
H          -1.27666279485729   -2.18230570486473   -0.50306482707987
H          -1.59623478525682    0.26564216854739    1.36605946459660
O          -0.61503650764689    1.38736446696913   -1.40710418012027
H          -0.80413125820146    2.02026538249107   -2.10140947508476
O          -1.12122673162044    1.77955216991670    1.18616421085953
H          -1.90205676288106    2.33523972166939    1.23394983900844
H          -0.87487590125034    1.70862727736850    0.23449445049320
O           1.58431408710798   -1.53077722817321   -1.25543032998643
H           1.26538698554603   -1.48212527776865   -0.33687106673087
H           0.81079753194203   -1.73984896398015   -1.78681989622199
O          -1.25883537194494   -1.17828569215148   -1.78841350327086
H          -2.14325802392732   -1.18080085232372   -2.15908491660388
H          -1.02677128196172   -0.23407950799774   -1.60963560542570
O           1.89341606395828    1.14465711772184   -1.32653434706166
H           2.06238078693782    1.30281174469610   -0.36232811726526
H           1.98597854044495    0.17344778192199   -1.42991827757925
H           0.42067238418630    1.30409434711973   -1.38945565500271
N           1.95618379063291    1.26540077012229    1.35279018205531
H           1.48996524419520    0.36295496373900    1.41988275010501
H           1.32699553073849    1.94531279778875    1.76201568752208
H           2.78827014894374    1.22419525631639    1.92738462933332
