    26
        -50.46044995  Gyration_radius:  2.45577372037 Dipole_moment: 6.770
 S           1.29885904084160    0.18416991901059    0.84885553038278
O           1.00114266610879    0.79093622155063   -0.44887348769047
O           0.97466326460275    1.03463992237166    1.95744309182932
O           0.40976765790869   -1.12203068987817    0.92486387668932
O           2.65927129541904   -0.35853806236628    0.87768448730710
H           2.55060666332266   -1.45149860057738   -0.00026361435554
H          -0.45267414277606   -1.00293214202165    0.44148263997227
O          -1.77040187786678   -1.02669412180971   -0.48759581715052
H          -2.43026192103713   -1.58671931337384   -0.07540519219171
O          -0.58114959640246    2.89058206764738   -0.83890879665192
H          -0.42363813055874    3.11471882805818   -1.75729185526293
H           0.06991241558959    2.19395940622396   -0.61476426694477
O           0.47820232371544   -1.11355582327230   -2.12245955560244
H           0.69449860415872   -0.26811771610402   -1.65703773603555
H          -0.42883524424016   -1.29714066060018   -1.83556806517367
O          -1.60025945383908    1.20881942290838    2.51774189631119
H          -0.63795982866574    1.11061128621793    2.34311841393065
H          -1.68158840638118    2.00445637690014    3.04656214615717
O          -2.60567264360088    1.33137164224548    0.02648647392961
H          -2.12100552924972   -0.07760748307638   -0.37156834353954
H          -2.38594374930743    1.32027565922819    0.98263144444632
H          -1.99077608084484    1.98982175739902   -0.35567058192229
N           2.31988879700195   -2.29825158110680   -0.69664662735419
H           1.55633046606171   -1.92187165852336   -1.35773479757716
H           1.94955334556356   -3.06178640761958   -0.13870461614364
H           3.14747007448729   -2.58761827948957   -1.20837668733922
