    26
        -50.46044991  Gyration_radius:  2.45586830967 Dipole_moment: 6.768
 S           0.92222474777358    0.89463492039128   -0.88929822568266
O          -0.42857520836704    0.43039631334021   -1.20668787778425
O           0.94643477102368    2.20559489886673   -0.30779787796584
O           1.49671555700425   -0.14326917257649    0.15705212403197
O           1.82194025470772    0.72095837663141   -2.03229943960772
H           1.94185515674151   -0.67826899067191   -2.09317703930104
H           0.77632869940188   -0.50804009547310    0.73998128205701
O          -0.30984827687382   -1.34161451083297    1.59098204928196
H           0.07294124631699   -1.57540844410678    2.43822371975943
O          -2.68059334492618    1.46709393326918   -0.24857293818211
H          -1.82424627687865    1.20507903052267   -0.64537038563019
H          -3.35836338271958    1.04438055925514   -0.77806335450519
O          -0.44069857141281   -2.15450723413482   -1.06579141477870
H          -0.48236446413948   -2.23456390679599   -0.10112174256291
H          -0.61956725946683   -1.19399127425482   -1.21954682525234
O           0.19846678761202    2.32147344318027    2.22248258954267
H           0.52283731030539    2.27705687323764    1.29569420576799
H          -0.02549404859054    3.24223961390887    2.36840228097345
O          -1.86552103281805    0.59849025594853    2.17224489917993
H          -2.31269472386471    0.91752252247753    1.36236522921371
H          -0.99990861460863   -0.62332734703511    1.80341874502984
H          -1.16029490440354    1.26042615124191    2.33711457705677
N           1.96800377385929   -1.79568209380459   -2.01324104090119
H           1.00057204318947   -2.07499312458284   -1.62888462394591
H           2.69079553376060   -2.03817686863022   -1.34229497241345
H           2.14905422741299   -2.22350383938865   -2.91581395314515
