    26
        -50.44450990  Gyration_radius:  2.48628486344 Dipole_moment: 6.908
 S           0.13376791085902    0.61592893793788    2.35273824187755
O          -0.03165468535863    1.36692299871315    1.13421751536192
O          -0.13114538163925    1.28472960524842    3.56968567565395
O          -0.73156246027329   -0.68133005923035    2.22236311852340
O           1.56159184564626    0.02356467571937    2.38652652272082
H           1.62454009499004   -0.58968633898561    1.60432489789359
H          -1.40398140496709   -0.57747708769529    1.49751655835703
O          -0.46735145504484   -1.61253003984652   -1.31152816320370
H          -0.51935022432282   -2.29558159439367   -1.98145746431159
O           1.56933596722829   -1.69067347498598    0.43674278252237
H           1.43993454650419   -2.52316872108446    0.89578141795048
H           0.83063658888723   -1.61077471613738   -0.21116230159757
O          -1.76377165524459    1.83494135662965   -0.92753831969346
H          -2.39077628865136    1.16166558685156   -0.64423904887183
H          -1.13251215689568    1.90211669266238   -0.19367711189643
O          -2.42125591472176   -0.71964041112206    0.23835981586436
H          -1.75372558663089   -1.07910838669290   -0.39641355392980
H          -3.04824602124786   -1.42207961836780    0.42064050627679
O          -0.00074412598074    0.55493141350223   -2.50847279458561
H           0.84195164598683    0.83229629246358   -2.06960779474954
H          -0.26826678713289   -0.73430264450164   -1.83040360080695
H          -0.68610804113097    1.13845706587294   -2.11431863031719
N           2.05246096658677    1.15668893214001   -0.87788194281865
H           2.59671533303553    0.35098323676050   -0.59456774230997
H           1.41393296451530    1.37426647778028   -0.11489895455703
H           2.68558432501688    1.93885983075339   -0.98272962935108
