    26
        -50.44729875  Gyration_radius:  2.49670137361 Dipole_moment: 4.460
 S           1.64345545296907   -0.31519786072900   -1.10633077579109
O           2.33362008979161    0.62167778925766   -1.93934402935918
O           2.37817449322440   -1.43410358210320   -0.62262849026803
O           1.03372608930211    0.39921557783084    0.12440918169623
O           0.39931101587076   -0.78610970017438   -1.91148765350467
H          -0.41471989144869   -0.94433978296261   -1.33071196314069
H           0.28274475719141    1.01285473198449   -0.13659847673167
O          -1.72543990709228   -0.97771230504687   -0.53158377205250
H          -2.21087870502962   -1.78621223420405   -0.70112547288614
O          -1.23099350556420    1.78370748074262    2.15323426850924
H          -2.04755649819665    2.19041662723935    2.44786693656385
H          -1.12533897993262    2.00724148145234    1.21853095900511
O           0.26273532005213    1.91376433960546   -2.95949288960180
H           1.12966583059967    1.56931711566634   -2.65635552411933
H          -0.01687123628397    1.31902758900627   -3.65874193516120
O          -1.02938458102465    1.71881479675999   -0.67474411618421
H          -1.59070261592571    0.93788220267115   -0.79131810457325
H          -0.66898330091324    1.94844325424925   -1.56699949699452
O          -1.14344408687728   -0.96944088329163    1.92494337541837
H          -1.08794953251985   -0.02447457553197    2.15479992237509
H          -1.49976016821520   -0.98899906052982    0.47797787471771
H          -0.21635321397784   -1.32590660057525    2.00167924507643
N           1.36357366716173   -1.90740334406652    2.03203697088319
H           1.90359008843121   -1.31076953372819    2.64691865874475
H           1.74488367939627   -1.78541085555843    1.09443507614433
H           1.53289573812941   -2.86628266639068    2.31063023054456
