    26
        -50.44816433  Gyration_radius:  2.53761226988 Dipole_moment: 5.004
 S           0.96008817227744   -1.95392152469783   -0.38329575715748
O          -0.38967892042265   -1.44177942255864   -0.33300852800493
O           1.27231668017057   -3.04331631308331    0.46353506029650
O           1.29416834851315   -2.31973217550303   -1.84583160029904
O           1.93697718903778   -0.78555608333860   -0.07574809564532
H           1.53327915337647    0.13854278988081   -0.13127086357987
H           0.91751491699174   -1.62835592925918   -2.45791654539047
O           1.03774690589106    1.61661342029702   -0.12403353078831
H           1.80039222359203    2.18535551977468   -0.00551267047121
O          -2.66943143682425    1.59663232290292    0.78266358735807
H          -3.28794436657951    2.30931778545910    0.61899468702549
H          -2.35455983538650    1.28819361606889   -0.08645157077075
O          -1.21393532799887    0.79097276810288   -1.43870374272763
H          -1.09348168421523   -0.08117286834099   -1.00392847677385
H          -0.48599837694305    1.33118654541974   -1.09228177416841
O           0.36188881280055   -0.36157234793654   -3.29273068012679
H           1.02399030478878    0.30270155199961   -3.49469000643904
H          -0.35107472560256    0.08518604641975   -2.78266042818190
O          -0.23929305575407    1.55568157042123    2.05706033481785
H           0.53391846543629    1.63439758300753    0.77991142751352
H          -1.17213315538136    1.59693430559188    1.77572927683574
H          -0.08992637371776    0.61965746161828    2.34730314182972
N           0.15492052355627   -1.07692098917429    2.46900206325888
H           1.10145003954953   -1.40298521058290    2.31146084842697
H          -0.37873328230023   -1.38711405101924    1.66307199634760
H          -0.20246120484216   -1.56894637147525    3.27933184681915
