    26
        -50.45192517  Gyration_radius:  2.5280160314 Dipole_moment: 9.342
 S           1.82650676914053   -1.83161762419017    0.97084768056258
O           1.84919763023851   -1.97738646206300   -0.48055505415631
O           2.85675753036524   -2.48613703865585    1.69173095051535
O           1.70176817187331   -0.37282083912308    1.28287664690638
O           0.43784765781980   -2.43936855918560    1.45524356715105
H          -0.26713994714227   -1.93146635290462    1.03002716977025
H           1.60575868818250    0.33495861728253    0.03043793725670
O          -1.74034500454055   -0.90693946979452    0.58686614393867
H          -2.41210171500357   -1.33413913535523    1.12077405723149
O          -2.18074556025529    1.02747848185014   -1.35521583307001
H          -1.80423241161063    0.58230298798941   -2.12014816382190
H          -2.23743973842612    0.34672836501945   -0.66143409800492
O          -0.19024424944525   -1.14239845902859   -1.79074077528324
H          -0.88162786907259   -1.30074640268978   -1.13607466704232
H           0.58927187357247   -1.65400769145409   -1.44501696778485
O          -0.48715176119857    2.72687415074705   -0.21683198830352
H          -0.79535964834468    3.63335252678888   -0.20375126364465
H          -1.19331366651799    2.19092245272571   -0.65578123346006
O          -0.50966767391271    0.89116367839235    1.94851800795655
H          -1.32906804125271   -0.19134141602749    1.17203273943630
H           0.37092303228461    0.45379303932816    1.91885398361063
H          -0.43573514518917    1.67848148610424    1.38861450486244
N           1.37464028596654    0.83782723246514   -0.92294017259238
H           0.72624135854049    0.17027639973292   -1.41974984140436
H           2.22791642860712    0.96373221799326   -1.45534016586972
H           0.89734300530804    1.73047780405266   -0.73324316477393
