    26
        -50.45517340  Gyration_radius:  2.42505769734 Dipole_moment: 10.191
 S           1.62377518906750    0.20134159390609   -0.62517813280969
O           0.28258218215314    0.13333282911644   -1.20358109156284
O           2.13915956099518    1.53001195114237   -0.51513780859861
O           1.46414134766925   -0.41728696054623    0.83920092265376
O           2.52314899604404   -0.76608158807815   -1.25819041629653
H           1.98496149347653   -1.99064426276629   -0.89394539849506
H           0.72674590733442    0.03605383598925    1.28674416873007
O          -0.78917900859759    0.55075533848437    1.89591453143117
H          -1.11588094702638    0.78575989160170    2.76562467588469
O          -1.45665414656294    2.23442972770434   -1.35775956566599
H          -0.81522330720620    1.54022599802846   -1.58135390369506
H          -0.97849666994581    2.79487213870216   -0.71455773394650
O          -0.89837424073815   -1.84759476903422   -0.07469468613572
H          -1.00407014204434   -1.52554780019488    0.82645340053173
H          -0.57176103198665   -1.05998500515942   -0.59053280291167
O           0.19216125933123    2.97850295057719    0.66051934996218
H          -0.09840034393463    2.27789760460029    1.25751147816194
H           0.99109014339449    2.63489878366808    0.22129318822366
O          -2.76140531537658    0.61924959303501    0.22145477619550
H          -2.40871937791379    1.31482543710368   -0.40530456396695
H          -2.81893758224492   -0.18631663222412   -0.29778261389654
H          -1.57971264178559    0.59614714046038    1.27419428706043
N           1.46924087350265   -2.92570556934401   -0.52158467429942
H           0.47051994452708   -2.62507644896850   -0.30000406855982
H           1.94211728065546   -3.23325121164011    0.32263865284558
H           1.48717057722361   -3.65081454619016   -1.23194199085129
