    26
        -50.44715955  Gyration_radius:  2.78076496552 Dipole_moment: 4.796
 S           2.60828640747280    0.71794697010183    1.42651926535403
O           1.67422195388826    0.26014694186003    2.44416827944306
O           2.79236227288470   -0.24962294266435    0.35473046778125
O           2.25974632854292    2.03927407839450    0.93127336144328
O           4.01311369284603    0.84314775268961    2.14351177628896
H           3.78396701018718    1.31002912851813    2.94060721873477
H           0.87986582475262    2.09831586921255    0.18634856907113
O          -0.03122502567817    2.08718428676354   -0.22391758656916
H          -0.30301962000358    3.00451672493282   -0.27802886321330
O           0.72383293702657   -1.31403310657884   -0.52785110602592
H           1.65398436560787   -0.97244183198589   -0.20985076017375
H           0.09938111445629   -0.97161493412729    0.21839757264216
O          -0.59863826070247   -0.11365921651185    1.27915366410275
H          -0.67099768238130    0.74381829047648    0.82104315484396
H           0.18204502150957   -0.00553181843871    1.88308030382076
O          -2.54734706495117   -0.45534116524672   -2.30700367098743
H          -2.62966660824312   -0.94353128427922   -1.44644041897945
H          -2.79330745630094   -1.07147570818457   -2.99794164060379
O          -0.01580350027037    0.30710181474896   -2.26145687780260
H           0.00498533146918    1.09421861341644   -1.68080453850035
H           0.46535438932319   -0.68783772955453   -1.36819842007829
H          -0.97382991449061    0.09059247279551   -2.38215392925169
N          -2.65630687930803   -1.83517670042267    0.01385426668381
H          -2.15399757926169   -1.25454846763237    0.67963431006880
H          -2.18204069746957   -2.72931741311001   -0.02347577095506
H          -3.58496637090141   -1.99216064516322    0.38480138286351
