    26
        -50.44724322  Gyration_radius:  2.48578468465 Dipole_moment: 2.975
 S           1.77085910668220   -0.08784980645006    0.59832533565667
O           1.19673320181360    1.11677463067134    0.06680759251617
O           2.82461977738543   -0.68833501932152   -0.13844196839890
O           2.24941709027519    0.15191302659121    2.04806077906236
O           0.62780877498648   -1.13328398501007    0.76066518901271
H          -0.23567163942729   -0.67712025011390    1.04636478326609
H           1.50116083930777    0.51401366642981    2.59240533948144
O          -1.55431168610621    0.00805365593131    1.47460053088021
H          -2.21159504153603   -0.48644189578909    0.96731426561106
O          -2.47551752185521   -0.32677410734520   -1.14379692053471
H          -3.17214542173590   -0.46586420092474   -1.78552351913337
H          -1.72859286624633   -0.91579621703799   -1.42495588773184
O          -0.42750823945957   -1.84188430044680   -1.82269758388987
H          -0.00402184211346   -2.07375210972215   -0.99021831259206
H           0.21701939851139   -1.24074432130057   -2.27268698095190
O           0.15372185240558    0.80577171039447    3.45665907422249
H          -0.61866411048736    0.58204259313060    2.91191442523819
H           0.10600249028726    0.26890969643244    4.25076129718136
O          -1.33928284269711    2.00350926617910   -0.13975617816625
H          -0.37376093731651    1.89878043546368   -0.19390289389824
H          -1.72561726582681    1.42100768754835   -0.81373634209354
H          -1.51646189291989    0.88725065966913    0.97916731430225
N           1.46237052173666   -0.10116133582303   -2.62009492483329
H           1.20188877712142    0.84380545191240   -2.36426380451292
H           1.92971456699438   -0.06273042323638   -3.51795384827648
H           2.14183492025816   -0.40009453779563   -1.92501675139572
