    26
        -50.44350451  Gyration_radius:  2.47227472799 Dipole_moment: 8.428
 S           1.09331285957229    1.88311162942666    0.42310429049638
O           0.56332908763321    1.34118304421592    1.64169800071002
O           1.73758833273697    3.14088232131778    0.46065383633462
O           2.03628320905659    0.80185723907345   -0.20791471332788
O          -0.05579468481449    1.95415422915628   -0.62422419946478
H          -0.41063670025973    1.02244510051647   -0.79501321364418
H           1.99041300368762   -0.01541521042826    0.36922046813536
O          -0.80202772154574   -1.85870215078924    1.14562509564603
H          -1.24200978281210   -2.64894695193467    1.46124323605286
O          -2.84775796241747    1.32618291256975    0.10397011344858
H          -2.30202828198750    2.10049846037048   -0.06060978487439
H          -2.56942537456104    0.66647050318217   -0.54243254827015
O          -0.92622855419410   -0.40594194656933   -1.14071136368860
H          -0.20127679017612   -0.68317432412035   -1.75114624919953
H          -0.89011201144787   -1.00335079227716   -0.36797566505297
O           1.84122126127354   -1.43206728948729    1.06500771448141
H           0.88166897261963   -1.57805925090025    1.21922164203029
H           2.14993271179590   -2.16136237762904    0.52353134565266
O          -1.75126266207170    0.19429968541467    2.34886245071289
H          -0.92157853069690    0.70504996878218    2.33326124962909
H          -2.32737940730004    0.62242318653921    1.68606188034247
H          -1.19153102555937   -1.09056564290571    1.68383747333488
N           1.29566881431490   -0.78152405190859   -2.62587495861724
H           1.16549857150493   -0.29816368210490   -3.50610994814767
H           1.82776146757644   -1.62182793280990   -2.81492051972203
H           1.85637120807577   -0.17945668670174   -2.02836562299923
