    26
        -50.45517337  Gyration_radius:  2.42503961881 Dipole_moment: 10.188
 S           1.13501095412897    0.80233319904656   -1.06832409795807
O          -0.20868166521811    0.24144633531094   -1.20235930919871
O           1.15770845712593    2.22632792532798   -0.94608367263714
O           1.71046841310261    0.15612633680458    0.27488596699382
O           2.04290603662206    0.24824760853931   -2.07534549649607
H           2.12509843406263   -1.09218686550931   -1.72971820070051
H           1.06021961719656    0.29531151169933    0.98712258133645
O          -0.23611874248177    0.19607646288398    2.10319371877856
H          -0.30691921707176    0.28536329130469    3.05470739691139
O          -2.51618287957980    1.53442116845136   -0.52020214625325
H          -2.07653966652756    2.22813566772076    0.01069932060629
H          -1.78909774043794    1.13388545315477   -1.02444852421033
O          -0.16328322029210   -2.04733624890202   -0.03957437366374
H          -0.06090685643555   -1.79568920251231    0.88410840784443
H          -0.32942462479907   -1.19039656990672   -0.52038741484404
O          -0.65037842542088    2.82516386241581    0.96261528256555
H           0.01797595351305    2.81099183830367    0.25384078765754
H          -0.45549405333295    2.06129387330493    1.51957359039238
O          -2.55232054917190   -0.46421028131064    1.15601317412356
H          -2.49787688596180   -1.22885864823650    0.57793255831847
H          -1.15410921977341   -0.05228175871754    1.77265303608866
H          -2.70108030981344    0.31760174510573    0.54972412390658
N           2.12877564302037   -2.15505299611631   -1.34397636538073
H           2.93555637925106   -2.26881928217000   -0.73800643409975
H           2.15816849475792   -2.81524916985438   -2.11474906176400
H           1.22652569350576   -2.25264523607803   -0.78389486848077
