    26
        -50.45437435  Gyration_radius:  2.51020874715 Dipole_moment: 3.444
 S          -0.49291886398404   -2.01274734320667    1.43292940691339
O           0.61369768240216   -2.17622315471982    0.49795864773232
O          -0.34696364762792   -0.81631902421645    2.24070730390231
O          -1.77940695655319   -2.10299415698550    0.77231361559657
O          -0.42211932271704   -3.23297740745251    2.43541692678190
H          -0.75581430407737   -3.93783986142484    1.89119510214037
H          -2.11352363614354   -0.62822898806297    0.24195757058421
O          -2.27000356991957    0.25929849918194   -0.17019770860915
H          -3.19792949577759    0.45295599705052   -0.02745742500069
O           1.13546399124183    1.11377394250964    1.63754806774754
H           0.56114229348617    0.34837761318847    2.00778098595462
H           1.74706006567898    0.64889548737304    0.95452762204840
O           2.34266036258502   -0.28244304142056   -0.11248982170773
H           1.88975760679691   -0.12035176036242   -0.95032048035907
H           1.93412101050131   -1.11863014868602    0.20154113134109
O          -0.04506099097816   -0.66019289525677   -1.66212754251703
H          -0.94071161639987   -0.36423466783107   -1.45855991036003
H           0.13153380942584   -1.36794328642562   -1.01745009894168
O          -0.50701660412941    2.27611985721467    0.19688735575703
H           0.42620788341294    1.70670259160103    1.05483717673709
H          -0.05705162911440    2.31784690599207   -0.69370296077378
H          -1.20707088695181    1.59468491465009    0.10970875203991
N           0.73545889902786    2.10431775351382   -2.15870653730096
H           0.33382289510035    2.63404851453245   -2.92115096878959
H           0.54713570126075    1.11851975234354   -2.32765593291724
H           1.73752927345393    2.24558388689940   -2.17549028799796
