    26
        -50.45335469  Gyration_radius:  2.50737572534 Dipole_moment: 8.528
 S           1.32798544523051    1.38383335115560    1.55118313156385
O           1.41154613771400   -0.06738036251606    1.25572512273529
O           2.48336390658700    1.90743100215401    2.19012029302672
O           0.98125865429998    2.08530303086438    0.28849479926107
O           0.09991459599744    1.56210500719709    2.50031100607295
H          -0.66402057974436    1.07045329187059    2.12129302249411
H           1.59427633061566    1.22459403683610   -0.85774959873936
O          -1.96573317653053    0.14104294704439    1.59352546648313
H          -2.57314797265117    0.06450973163470    2.33072845701059
O          -0.53410999669639   -0.22043047510873   -2.48158168035950
H          -0.83642165705792    0.07107431975983   -3.34235563269416
H          -0.93118921629643    0.42675119179681   -1.81381659190526
O          -1.37454121081713    1.47009730664497   -0.73455152140349
H          -0.54611825215210    1.84523457191625   -0.35655467698005
H          -1.81371482340291    1.03627114099795    0.01225607309454
O          -0.41095711540174   -2.65324324543874   -1.20456567378709
H          -0.52446733127243   -1.82702427652297   -1.70469539062440
H          -1.10938329089984   -3.24714723023705   -1.48273247584589
O          -0.46063828071739   -1.94465207299450    1.45828088396390
H           0.33890710767597   -1.38730840233844    1.53762279261199
H          -1.46843779960281   -0.73376882739604    1.54067289679332
H          -0.42090605128436   -2.31241009359665    0.55693572573898
N           1.82691459143491    0.24334082573356   -1.21761312752959
H           1.06459761036792   -0.07537991629581   -1.84724139913110
H           1.75875921841545   -0.22605028279351   -0.25801885819838
H           2.74626314619637    0.16275340963139   -1.63567304365067
