    26
        -50.44822599  Gyration_radius:  2.4652331022 Dipole_moment: 5.215
 S          -1.29959336759787   -1.70066247500969   -0.49508629867284
O           0.09881522381005   -1.33199420663709   -0.61401148810165
O          -1.85593601440036   -2.41021185271321   -1.58697129181472
O          -1.46899060294799   -2.47596641009496    0.82703031697652
O          -2.14484078365471   -0.42552624018204   -0.27946101195248
H          -1.66512996351072    0.33137908699027    0.18089094343035
H          -0.62868913281927   -2.35236124142586    1.37842444230445
O          -1.02665650108828    1.62798939981926    0.76547591129917
H          -1.72501762657920    2.26824864594256    0.91514232718249
O           0.84356986193496    0.63006998726104    2.48040307080919
H           0.60842535230237    0.92663730448277    3.36102295240980
H           0.19801965519240    1.02597159051998    1.86430609141549
O          -0.68806018429001    0.05945840426138   -2.81432505766658
H          -0.25125606413560   -0.51739847934935   -2.17267798650829
H          -1.48126074507603   -0.41135237081786   -3.07867253302137
O           0.79632119940218   -2.00859488864471    1.91264523209228
H           0.83520279313273   -1.07967424160742    2.22879518076761
H           1.16730631458612   -1.98344796088000    1.02236303229735
O           0.16908364404827    2.25130400005480   -1.37225232314230
H           1.04610083613912    1.85747119529508   -1.13613022172722
H          -0.20276031598124    1.64762615996034   -2.03910445906844
H          -0.53830560735086    1.93686673070657   -0.09385508419472
N           2.18724051007590    0.75418330705949   -0.42597134221272
H           2.31434311137597    0.87392308512200    0.57203070351515
H           3.09413996564209    0.58301826840283   -0.84025830840838
H           1.61792843181766   -0.07695679845444   -0.55975279807988
