    26
        -50.44283667  Gyration_radius:  2.54442085821 Dipole_moment: 6.562
 S          -0.03878648783683    1.54866114748331   -1.88901781164908
O           0.17164560999728    0.13081228890775   -1.82829353576958
O          -0.41215735891102    2.12244210326977   -3.12722929461496
O          -1.09405823372519    1.91324318283380   -0.77379934446477
O           1.20760456975781    2.27407731245774   -1.32942340518190
H           1.54631165031372    1.75347095057295   -0.54937314562502
H          -1.87266208796274    1.28327625226399   -0.86445179741654
O          -1.77694786950122   -1.27515455020085    1.11397728897399
H          -2.18047535783233   -2.01198993295837    1.57398481185629
O          -3.03737930445368    0.24398753481679   -0.68269011506240
H          -3.80216092767202    0.63362834364879   -0.25365876659413
H          -2.63815782018518   -0.39159395385565   -0.04141692131192
O          -0.43798434745860    1.01888400223409    1.77126609299814
H          -0.77801259551941    1.54566190729126    1.03248767693504
H          -0.87766911446884    0.15266434760537    1.69118200428679
O           1.99923627073924    1.07773264659161    0.85016361266777
H           2.46794989220495    1.75338905189766    1.34479665966454
H           1.10671595156337    0.98085238087167    1.28866478255440
O          -0.06525229278168   -2.22331581479574   -0.52327955039443
H          -0.03615476763589   -1.49415769705630   -1.16572519222287
H           0.83492830337676   -2.22345444633608   -0.12147317188135
H          -1.09253964560112   -1.68441736111110    0.47963188508761
N           2.45354063883916   -1.88353818627893    0.45247227125734
H           2.82752374656830   -2.25637032281004    1.31582071377048
H           2.42889847288363   -0.87096284303593    0.52897103204810
H           3.09604308541181   -2.11782835399483   -0.29358678003002
