    26
        -50.46983916  Gyration_radius:  2.51173570878 Dipole_moment: 2.843
 S           2.06466906291991    0.55683483041833   -0.44088618051629
O           2.30928569973619    1.07846761792734    0.88504013258732
O           2.12372237812229   -0.90074566672759   -0.48138640141865
O           0.84307016368502    1.06574182834962   -1.04361149859052
O           3.24207644171827    1.08081797771169   -1.36170131840578
H           4.01306815280565    0.92185965709172   -0.82666170897728
H           0.25515711391654   -0.21706642599876   -2.06150661450694
O           0.08510916895777   -1.11569732652188   -2.39794684660092
H           0.88347719125083   -1.60098749010493   -2.16794289667609
O          -3.13544678173163    0.39128280200457   -0.05524300666064
H          -3.64986971333024    0.43590867978799    0.75175830339896
H          -2.43125181833060    1.06331276396539    0.02399509536758
O          -1.09463342044811    2.16112440334149    0.31281735664204
H          -1.16421875539478    3.07687286689440    0.03851383182121
H          -0.36341041915115    1.77179966498026   -0.22728698685693
O           0.11941485634090    0.71782042685428    2.32741840126387
H           1.00994010815380    0.93031487936208    1.97381973142701
H          -0.47507312626336    1.31624525637964    1.84891355770550
O          -1.77337399031524   -1.87886916189986   -0.62230143593740
H          -0.70377970522695   -1.78061483827639    0.45264641065790
H          -2.37363467847513   -1.11478489335464   -0.50899225378713
H          -1.23488267199963   -1.67541239998325   -1.42010649090571
N           0.14640838702583   -1.63056573957211    1.10885267061236
H           0.98505127482856   -1.45148407887807    0.49849258408622
H           0.30032693610480   -2.44336009896486    1.69553058078041
H           0.01879816509508   -0.75881553477431    1.69777496347754
