    26
        -50.44283670  Gyration_radius:  2.54438781769 Dipole_moment: 6.557
 S           0.31886251386126   -2.22228387428671   -0.96240573204401
O           1.02648815240887   -0.99076145721029   -1.16439128297988
O           0.95569972241256   -3.43287387216103   -1.32390994635655
O          -0.12362441487908   -2.26489513667542    0.55172034219323
O          -1.06591979519942   -2.13332586944218   -1.64591414892593
H          -1.42062440141535   -1.21134422274361   -1.51062190810593
H           0.67873006633306   -2.04697040768213    1.11741880003152
O           0.87674424699242    1.04716892853264    2.04007661733857
H           1.20824780243572    1.75009485813922    2.59986783970193
O          -2.13854709740097    0.18830518132117   -1.12853012479807
H          -1.94407860455211    0.21704835936316   -0.14886244191238
H          -3.08393580643684    0.04488116520608   -1.20912120875696
O           1.73097762724980   -1.47987346562300    2.13768282771219
H           1.58094887830539   -1.80708922187805    3.02719491658542
H           1.50584539050641   -0.51866946258824    2.14088365435052
O          -1.55124643578954   -0.04054416363970    1.40016826758239
H          -0.77483058244093    0.47701872915023    1.68181075695240
H          -1.22556849270346   -0.94638919715120    1.28851366212186
O           1.69717596358945    1.49172568602079   -0.33451257209730
H           1.01220403068184    1.97529344149655   -0.85295562043189
H           1.20961547421400    1.25944610674368    1.10069639761106
H           1.66482295008259    0.58675271990441   -0.68842956573385
N          -0.32578399238033    2.49473888129374   -1.85538435208396
H          -0.00357182756142    2.49523183744405   -2.81478951454584
H          -0.84025353139616    3.35189387369948   -1.69787848525947
H          -0.96837784693299    1.71542058276335   -1.74832718809446
