    26
        -50.46907316  Gyration_radius:  2.47597695471 Dipole_moment: 2.911
 S           2.00687032101833    0.24035923590353   -0.94630196745724
O           1.48047959370315    0.76358422804656   -2.18422771512626
O           1.97654564456083   -1.21679848900479   -0.88911588796369
O           3.53765981291590    0.65662969272038   -0.90048104158104
O           1.40899975598441    0.83400013230315    0.24078414011087
H           0.14446977993237    1.86940089997551    0.07476538734341
H           3.81658214936098    0.41843128183644   -1.77803541429129
O          -0.67392093225872    2.41632608313994    0.00013211444814
H          -0.39411422229882    3.33048667960875    0.05699476580287
O          -2.07776315059845   -1.28820540505945   -0.44615503960226
H          -2.77346020199768   -1.73407971639513   -0.93030003366537
H          -1.70605922835537   -0.59808840066391   -1.07398895416775
O          -1.15058281841895    0.57209245435411   -1.98976065339251
H          -1.25336680684646    1.37032969310042   -1.44840427820164
H          -0.19427316474136    0.55795905309960   -2.20470233798347
O           0.37167259689619   -0.20897684368334    2.51581023168878
H           0.91345654458114    0.31111359073869    1.89596552107381
H           0.27301020651324   -1.44442430228898    1.60614086599881
O          -2.00727680300535    0.63694374410528    1.65170698549235
H          -2.22600814434546   -0.04649040718387    1.00261034177481
H          -0.54033930264515    0.15456169881259    2.41627665324396
H          -1.69017643405609    1.39422577211846    1.13271109304138
N           0.19920863726832   -2.12027032288525    0.76681638476878
H           0.95778887324636   -1.81678793631076    0.08085958242276
H          -0.72116830022706   -1.96430676383125    0.30861665275822
H           0.32176559380870   -3.08801566255784    1.04128259346204
