    26
        -50.46983915  Gyration_radius:  2.51174138921 Dipole_moment: 2.839
 S          -0.05209821681632   -1.44239703593241    1.63909801936434
O          -1.47452698356066   -1.67168178430122    1.52036152593140
O           0.71045973240113   -2.15918381582853    0.62204010277923
O           0.30202049972070   -0.03290074646432    1.68707517644360
O           0.39109418508061   -2.03917274610461    3.03769557687647
H          -0.04711413901616   -2.88392817800891    3.05333392438586
H           1.86593986813692    0.08181184857953    0.93391908444949
O           2.61961579977937   -0.12023295651719    0.35009692428569
H           2.60671810775617   -1.08005884475234    0.28370268334116
O          -1.27138678855070    1.88660165137957    0.89026399341611
H          -1.48582147067592    2.42664220500295    1.65254808288970
H          -0.66550232353817    1.17886355972296    1.22177938688409
O          -2.37412536067099   -0.22424513469910   -0.50479280716471
H          -2.21821612563747    0.65995352679802   -0.13836899369552
H          -2.24203918433534   -0.82742755287394    0.25806013777903
O           0.08001047733849    2.90138314184006   -1.24848325693538
H          -0.37602573436354    2.58855807276998   -0.44345453613647
H          -0.60122311260472    3.20679755881466   -1.84891116035994
O           1.61045731273048    0.78545542965948   -1.96262289105816
H           2.15555161823103    0.57042323509858   -1.17229220342621
H           0.55607307326463   -0.30365130916180   -1.86273251095140
H           1.17279708768643    1.63572496487704   -1.75647772580045
N          -0.14798987043250   -1.09736945176630   -1.63777003939719
H           0.22612508150760   -1.62067152405585   -0.80460780993771
H          -0.25758297659989   -1.72109163155368   -2.42989195975951
H          -1.08321055684276   -0.69820249252014   -1.33956872419896
