    26
        -50.45970665  Gyration_radius:  2.46584545156 Dipole_moment: 8.965
 S           1.31837360035855    1.36154964905007    0.95261522597946
O           1.26388699535084    1.40073701732015   -0.50885489564393
O           0.43888849823751    2.27441001541807    1.61079426781278
O           1.17502177519785   -0.02245157762920    1.42706670591870
O           2.80182621186227    1.78317042556806    1.32562285911852
H           3.35097879708238    1.29957585489392    0.71566655870653
H          -0.37848931636523   -0.38972098622984    1.71060239909068
O          -1.32457929407340   -0.65671888296568    1.81281420665489
H          -1.41694750979083   -0.97367546336169    2.71212581648206
O          -1.29930075722538    1.24741846905720   -1.36681803403448
H          -0.35517795898128    1.38421415780704   -1.16526702585494
H          -1.77365021148014    1.67509920670711   -0.61820431942605
O           2.21165128570638   -0.96957806649204   -0.73551291591819
H           1.97220004951243   -0.04428963876341   -0.97528300725226
H           1.95712820627746   -0.95941390820974    0.21194066405911
O          -2.17710355132314    1.95623282776843    1.05223790354876
H          -2.21366236947575    1.06241276093894    1.41884116480664
H          -1.30546207887528    2.29399430950462    1.32505144065085
O          -1.82746209550123   -1.20429486609309   -0.79022940226375
H          -1.72145837344544   -0.24708658322290   -1.09745111973003
H          -0.70272417524795   -1.82030357962165   -1.35588956439478
H          -1.75338633785643   -1.14915823352026    0.18090363291636
N           0.22289804482312   -2.24905659855445   -1.85626992152388
H           1.08115692936177   -1.77049751574862   -1.41593573925521
H           0.18542015119046   -2.02891805483467   -2.84658434513286
H           0.26997348468416   -3.25365073878890   -1.72398254532063
