    26
        -50.44450982  Gyration_radius:  2.48701138538 Dipole_moment: 6.920
 S           0.87682411789704    0.85894127717284    2.10589403500698
O           1.09493048134972    1.19030173080158    0.72063851189759
O           1.34106371290477    1.77720433763107    3.07521065531871
O          -0.65213501089877    0.57726848977629    2.28290430594786
O           1.47529130578953   -0.53882837302431    2.38689302866100
H           0.98109361544013   -1.17296693852976    1.79945149581496
H          -1.16395866926847    0.95330342240039    1.51799122442212
O          -1.64428876432623   -1.04828376343201   -0.85262025402364
H          -2.25648987029524   -1.62218724963296   -1.31516774152313
O          -2.16959451352776    1.28532439566427    0.28588705588072
H          -3.07087526342047    1.29889362213990    0.61349224118402
H          -2.04278477117145    0.42746671762609   -0.18926288472626
O          -0.11261775449189    2.26159221232660   -1.48466868480147
H          -0.97821898290994    2.32043473588013   -1.06762289697517
H           0.48952462013252    2.02575710643277   -0.76115633904994
O           0.00714036952475   -2.13889064501032    0.96275215251655
H          -0.58976351262202   -2.50705418638868    1.61742341614584
H          -0.55820280281005   -1.71116984632312    0.27775430236886
O           0.00098627084390   -0.20201776771977   -2.56323924779172
H          -0.01709544081584    0.76307738807246   -2.37908060071784
H           0.85437993574841   -0.51266521358659   -2.16985083449768
H          -0.97573767290170   -0.72004257762268   -1.57745945329089
N           2.11390527502283   -0.88178999330224   -1.04291109914761
H           1.93098454727143   -0.11031368111840   -0.40376321793760
H           3.08697554318040   -0.83246183529257   -1.31551958678599
H           1.97866324434543   -1.74089335493963   -0.52396956389903
