    26
        -50.46907330  Gyration_radius:  2.476052835 Dipole_moment: 2.909
 S           2.14297597364027    0.38632376645146    0.48938377532186
O           1.92619781992172    1.77145620731007    0.83264876916994
O           2.29223766200636    0.17557989660597   -0.94619391720758
O           3.52758306124400   -0.02532805528384    1.14679922638544
O           1.15806950945340   -0.51939151082806    1.06274475688269
H          -0.13282084634882    0.09820146583921    1.86959126142271
H           4.07358993822878    0.71149764659208    0.89470383472658
O          -0.96123364515188    0.45265020992891    2.27273754290208
H          -0.83416656821764    0.42305041687297    3.22153960743786
O          -1.67345109846414    0.84700274413136   -1.63030756051810
H          -2.13639343593337    1.44905533072801   -2.21379411161610
H          -1.23384281429006    1.42337395672627   -0.93511923800411
O          -0.33626481515211   -2.52909903946467    0.02939942776706
H          -0.00667052996491   -1.77100571916477   -1.26683890437696
H           0.28544438021482   -2.02528774698821    0.58430911917411
O          -0.60177664618423    2.27858998411450    0.24179086440374
H           0.36923174922425    2.22285662891351    0.36421456398554
H          -0.95931233344311    1.87777614866509    1.04948280155094
O          -2.46071157389467   -0.96271347507501    0.42335761806572
H          -1.22197052540402   -2.14583962024751    0.23541188898686
H          -2.11261857662953   -0.46794884180437    1.18324816864100
H          -2.39245561719568   -0.35914419290498   -0.32984686002837
N           0.25246077163164   -1.02419048164382   -2.00290817590209
H           0.41872263716707   -1.42795389388362   -2.91735759201076
H           1.12812316711432   -0.54095174706190   -1.63150896423825
H          -0.51094764357011   -0.31856008850331   -2.02748789291593
