    26
        -50.44410006  Gyration_radius:  2.49539739348 Dipole_moment: 7.234
 S          -0.96311472261767    1.10213763937800   -1.98809184471375
O           0.31051097318177    0.94712732391397   -1.32972389519142
O          -0.94831001610022    1.43772003976532   -3.36136355051560
O          -1.78184561826483   -0.20192204785516   -1.73594874049207
O          -1.80413415857041    2.13972979086207   -1.20560569187054
H          -1.80198079049999    1.82426071716138   -0.26683510546785
H          -1.17726851654053   -0.95525572781839   -1.47833479243609
O          -0.57290040045121   -1.17415417011248    1.60588552770750
H          -0.75822991927775   -1.67390811692956    2.40231302659638
O          -1.83235101479244    1.15070759755958    1.21823997833483
H          -2.75316476698930    0.99593122457544    1.43677478382407
H          -1.36490081567234    0.28590852985984    1.32343215012467
O          -0.43020240207080   -2.21851172383694   -0.84847170971069
H          -1.04271993404850   -2.95684692809926   -0.87026584925798
H          -0.40918048114056   -1.88791652455248    0.07976950728689
O           0.91050733036277    2.12113993474984    1.05097880393119
H           0.01650231638013    2.22498109584464    1.38919509858895
H           0.80921614764845    1.79991224830535    0.13755340433603
O           1.78123601716893   -0.30250765513560    1.84282816085792
H           1.63387277059136    0.65818052015952    1.70948831218490
H           0.39962509747709   -0.82697308788158    1.72275088704325
H           2.17747510820424   -0.60828434003682    0.98685742812621
N           2.42353051989139   -0.95995769133154   -0.67770247377908
H           3.32648245171086   -0.82519351833105   -1.11445393793282
H           1.79562503219574   -0.24551475743867   -1.04040856685074
H           2.05571977220694   -1.85079038278530   -0.98886091068439
