    26
        -50.46788062  Gyration_radius:  2.39885242215 Dipole_moment: 5.650
 S           1.00184914291049   -0.47502365792287   -1.42516245020763
O          -0.36554423100980   -0.75110932486259   -0.99829474965002
O           1.10111704339737   -0.27345435338870   -2.84541961896913
O           1.52562159268322    0.68196177161380   -0.66142120847374
O           1.87741068027785   -1.70127542117461   -1.02170102290776
H           1.68342719454177   -1.88401877569155   -0.07128379433476
H           0.32193553444537    1.60056392045543   -0.65065936012398
O           1.21994421747685   -2.21914191766619    1.51020532755102
H           1.37621310196616   -3.15065302016718    1.67399184998989
O          -1.28143383378793    0.87613217815964   -2.98152597176572
H          -1.81100065664431    0.10072157788716   -2.77356632500251
H          -0.37589112061598    0.51082338657024   -3.11676054040129
O           1.25168092003856    0.53406477629190    1.96133966889158
H           1.49348164310877    0.64698595162925    1.01562980851872
H           1.40699486115102   -0.40291359334430    2.13593749666341
O          -1.29459884649192    1.09840355443639    1.82082803964686
H          -0.32348866688400    0.88221344462547    1.93453410067796
H          -1.54025938771811    1.62780800838970    2.58055183027505
O          -1.32019106034527   -1.69856999096340    1.23680731981858
H           0.22584782465134   -2.09833258896866    1.48171377761937
H          -1.56043497256240   -0.85958536564874    1.65166355161388
H          -1.10071209651363   -1.44362948256186    0.31317778197276
N          -0.66264172771386    2.03260895189255   -0.67670163157950
H          -1.07924291635322    1.62516617033414   -1.56581009420891
H          -0.62818169149993    3.04626175738108   -0.71048615368051
H          -1.14190253855354    1.69399206269223    0.18241236801884
