    26
        -50.44283667  Gyration_radius:  2.54450711601 Dipole_moment: 6.561
 S           2.19209941457967   -0.22697107401825   -1.05450346309828
O           1.30296437945052    0.89367543031149   -0.94643970955984
O           3.55314684331957    0.01849254329063   -1.35286258424380
O           2.06328117307337   -1.05688392934070    0.28142090332953
O           1.60953653788408   -1.24551376379924   -2.06244093043461
H           0.62110236595198   -1.27725162520927   -1.93606136348120
H           2.14821135714544   -0.41923376953404    1.05443729965466
O          -0.66816203704284    0.58812515997448    2.28733581253870
H          -1.20593482989435    0.97621310433457    2.97840608845434
O          -0.94593433519521   -1.53528432737251   -1.62106569744481
H          -1.15456681626359   -2.40930785239466   -1.95785439763650
H          -0.90699394936631   -1.62228639555997   -0.62644188627442
O          -0.53205800903082   -1.78933287479700    0.93929157993723
H           0.43074930665374   -1.78427488329654    0.82969948130242
H          -0.73396394808825   -0.99086803561629    1.46054591328017
O           1.99573940254067    0.43795209998873    2.36267165472886
H           1.01853338816157    0.57339943093380    2.39845114052336
H           2.23992514260817   -0.05806135036511    3.14696522599874
O          -0.77197367411289    2.13455824645325    0.26064603713014
H          -0.74015149500873    1.21997509631122    1.49121603123261
H           0.06145987273132    1.88631999042799   -0.17410987646414
H          -1.46834516811900    1.83419267946111   -0.36920024064147
N          -2.43369501961919    1.09523358571385   -1.62867103754577
H          -3.41971440660117    0.89156546211051   -1.52672757587161
H          -1.94161048839862    0.21749990789489   -1.76695660446365
H          -2.31364500748045    1.64806715406864   -2.46775181083201
