    26
        -50.44409999  Gyration_radius:  2.49481228504 Dipole_moment: 7.223
 S          -0.96043853785871    1.37261337717936   -1.81122269836320
O           0.26796475025037    0.68953266996441   -1.48873727371497
O          -1.21736351298147    1.63704471916306   -3.17603872721718
O          -2.12846028304999    0.56554686929634   -1.16418570150180
O          -1.02387615496949    2.69054897055546   -1.00198546423449
H          -0.87601202545212    2.42533206209623   -0.05933098588135
H          -1.84416628769446   -0.37241814031244   -0.96728480958326
O          -0.50517957023042   -0.77224354323738    1.85170804352046
H          -0.63657869612756   -1.12301748268830    2.73379745540590
O          -1.53701722805576   -1.82419411944460   -0.37638298031261
H          -2.37604005489168   -2.22040748366540   -0.13171420907305
H          -1.10849934649913   -1.51803102719108    0.45662443433400
O           1.97021338501266    1.52890893701536    0.46127066238808
H           1.34285378746677    2.02044665870433    0.99899237255375
H           1.48080359773965    1.26667098836846   -0.33841425905109
O          -0.74582619093406    1.86114258977453    1.46538394077561
H          -0.66821552649422    0.88125623926723    1.57160224402560
H          -1.54238095641764    2.12732935123126    1.92842652034141
O           1.95316178708792   -1.01540660045564    1.34691572331769
H           1.91599005468733   -1.48043041193660    0.47191570435431
H           2.18371493159503   -0.08986739795272    1.11726856283728
H           0.51079969007440   -0.88391355234679    1.66321068411494
N           1.49218764573389   -1.93694505305241   -1.13013003930321
H           2.19698778606895   -2.22094992734664   -1.79862847132381
H           1.14067728251255   -1.02669705854118   -1.42021090320560
H           0.71469968342345   -2.58185162443491   -1.20284982514963
