    26
        -50.45006254  Gyration_radius:  2.4512328848 Dipole_moment: 6.411
 S          -0.80130513776166   -0.61478777117945   -1.92416742264487
O          -0.48505913566521   -1.84186033442183   -1.23005341766626
O          -1.44248007664489   -0.72056520187860   -3.17914511773269
O          -1.66598398857867    0.26586642658543   -0.99217276930090
O           0.51811497581409    0.21022354802415   -2.03564526335745
H           1.23532978019811   -0.32951760707080   -1.55800578428662
H          -1.09800486152480    0.66107111498006   -0.23533299483093
O           1.26708126511169   -0.72724474276561    1.77210073040237
H           1.66452748910736   -0.86668161840162    2.63220728509357
O           2.08708082811168   -1.30362425916774   -0.73586421052496
H           1.97655758044166   -1.05937840690400    0.20615579084138
H           1.46181140152600   -2.02801015144598   -0.88400293237457
O          -2.64369668511291   -0.16099616325120    1.68864029859456
H          -2.03174924184540    0.57971433348247    1.77427248706683
H          -3.00357609210507   -0.09936732083495    0.79871659068960
O          -0.29150369556551    1.29183141209712    0.87964437266271
H           0.33411621549124    0.63719467168204    1.25108146531288
H           0.26372069248854    1.94586243274955    0.37784192169824
O          -0.82519392292119   -2.18048996320130    1.42400125885916
H          -1.57820990148506   -1.59662219125866    1.64479033844979
H          -0.80958921482482   -2.23706881792558    0.45104551410535
H           0.48086284799976   -1.36016610215784    1.71357083925482
N           1.21545129531567    2.79285805144749   -0.74045157457847
H           1.11271989457994    2.15050251024132   -1.52079444810505
H           2.20439881599202    2.89733374194627   -0.55163679321500
H           0.85457886185325    3.69392239864020   -1.02679616443331
