    26
        -50.47250201  Gyration_radius:  2.48738676506 Dipole_moment: 2.908
 S          -0.70070585246668   -2.14268216788681    0.24867166017963
O          -1.32561401997129   -1.63210186797036    1.46304008994012
O          -0.82878955744806   -1.21567608133283   -0.85934607833746
O           0.66238718090511   -2.58008080212822    0.48101514073672
O          -1.51713170412542   -3.43616443385063   -0.16348652495226
H          -1.29219626397708   -4.02850781021680    0.54574504360162
H           1.67757273870961   -1.37032909447232    0.68901088401170
O           2.30607915257772   -0.60404937310144    0.75407212763352
H           3.05829498777194   -0.92215763369361    1.25539029189187
O          -1.95416859861333    1.21924321828945   -1.16404826971747
H          -1.71084809296474    0.28097590275812   -1.27013900099410
H          -1.15385745738802    1.71402693993983   -1.41843408428839
O           1.43495239616425   -0.20947604200286   -1.86055676581884
H           0.61342109029448   -0.69112074763904   -1.63647574473484
H           2.01735348945339   -0.35976712139907   -1.10145279806405
O           0.58775667003002    2.22852153661322   -1.50977412925105
H           0.93921258198507    1.31556416981862   -1.72325006975451
H           0.94368481855674    2.81819212574272   -2.17464298192006
O           1.02846800776114    1.77502136636999    1.17046523035161
H           0.95680914795000    2.11026421872081    0.25836828054433
H          -0.47695948012703    1.33175962184910    1.45750022744401
H           1.54919024605742    0.95240599208748    1.10172845810359
N          -1.47477351345282    0.96992631844175    1.40804072472455
H          -1.45123654760000   -0.08678424488166    1.50257470980059
H          -1.82666644522198    1.17686807013379    0.42481032469226
H          -2.06223499484404    1.38612793980528    2.12117324415592
