    26
        -50.45912156  Gyration_radius:  2.68321480018 Dipole_moment: 5.096
 S           1.50185334087854   -2.42340473815678   -0.17261045971879
O           2.41919383477803   -1.29672725285467   -0.05112455925905
O           2.04698003374178   -3.59056441769051   -0.78556399448951
O           1.15288983667288   -2.85654938071295    1.34853984696807
O           0.21607690098958   -1.96718723342349   -0.70667073635137
H          -0.17939737124770   -1.13626411912252    0.57681543605604
H           1.73200118593271   -3.60547850103999    1.43862348413241
O          -0.50617554533676   -0.62148534093772    1.36134417352430
H          -0.29889717619899   -1.18369254552314    2.11074675798534
O          -2.52705630792843    0.27801369058130   -0.21130416873301
H          -3.08474833311330   -0.46224803547643   -0.45572110295603
H          -1.88643337516330   -0.06396652309498    0.44408506517509
O          -0.48976238952943    0.16141738499251   -2.15185516625823
H          -1.28380589923444    0.39937053530305   -1.64672480674054
H          -0.26280053869936   -0.73765791671365   -1.84157200248060
O          -1.88548776241054    2.93469564728019    0.22461114584345
H          -2.24506243159983    2.07204360298980   -0.03413851722622
H          -2.58296153124993    3.39905941904596    0.68884793153020
O           0.41102345109057    1.97421997986385    1.34025152793438
H           0.08786624863545    1.07835666429178    1.54603404438950
H           1.24784326503827    1.55191231919098    0.04650903281909
H          -0.36323763515302    2.46178974822410    1.00035721984379
N           1.62121793105941    1.06072226953659   -0.81785757789518
H           2.33956156624750    1.60496141367522   -1.28089931541738
H           0.80987033063000    0.85192192092790   -1.46267526379339
H           2.00944835116421    0.11674140884694   -0.50804797488329
