    26
        -50.47220510  Gyration_radius:  2.41993641232 Dipole_moment: 2.802
 S          -0.00486802124281    1.70607871119509    0.22378090825945
O           0.13443073405018    2.33690890394059   -1.06538903012480
O          -1.28338732771728    1.01598258420577    0.36459195829639
O           1.11433185081381    0.85385799518951    0.57938947268943
O          -0.00909584714086    2.87232383078944    1.30137933374907
H          -0.37828752098441    3.58991988829290    0.79873295067753
H           1.67111075835585   -0.38721099699870   -0.31724186989644
O           1.93762596681603   -1.12205750687761   -0.91700755790151
H           2.85951494935202   -1.30179929003231   -0.72621972622624
O           0.48218308132496    0.33055218070544   -2.80269700048654
H           0.43120295229184    1.17080187883847   -2.30231206856305
H           1.18594688037130   -0.18907684495843   -2.38244337559846
O           0.74382917026406    0.55694658049614    3.21407832691344
H           1.01765274160813    0.68654098240131    2.28892776697540
H           0.38883628506540    1.40064041510188    3.49884898642580
O          -0.97151442002634   -1.19327080286143    1.92187474090800
H          -0.34461500136804   -0.88984180418166    2.59683305566422
H          -1.20794605161933   -0.38433479197759    1.43678165320514
O          -0.28773762683215   -2.61433966002993   -0.22206875720370
H          -1.12522775750579   -1.65429295367095   -1.08276019579648
H           0.60865504727496   -2.29703624490990   -0.42632979666054
H          -0.50506751572164   -2.25830985158096    0.67254229457379
N          -1.54959193492997   -0.78491212175886   -1.56746473691970
H          -2.44062933367067   -0.98387179389776   -2.00713124363850
H          -0.83003505538865   -0.40856589778228   -2.25264506921097
H          -1.63731700343849   -0.05163338964844   -0.82605101010666
