    26
        -50.45912140  Gyration_radius:  2.68279079457 Dipole_moment: 5.081
 S           2.63600783953378   -1.02177844398891   -0.39969569010193
O           2.69275904363774    0.42999397184649   -0.27899002012170
O           3.71995786177563   -1.61786848338994   -1.11030481105562
O           2.75235057477212   -1.58174233726734    1.11567899802565
O           1.29563512526115   -1.43714679231490   -0.82099557908306
H           0.59420421222661   -1.01027575214251    0.52858711309976
H           3.66934389521839   -1.83376868892669    1.12365588203111
O           0.09331909770178   -0.79627876374516    1.35946431530116
H           0.66207458386900   -1.11691020252278    2.06257304727104
O          -3.24638693500346    1.19341488490492    0.50159691130560
H          -3.03244641604684    0.28850674721764    0.22633993897503
H          -4.04071701738429    1.14173215192981    1.03455483997058
O          -0.67070032443851   -0.16785122077995   -2.10109064751437
H           0.07797104882111   -0.74646038354751   -1.85430590703094
H          -1.40031704838994   -0.45871427547488   -1.53069443014870
O          -2.18690477626550   -1.30925663072667   -0.02047066323812
H          -2.19973745722475   -2.23574656073764   -0.26587498756485
H          -1.41652647344787   -1.19148424064753    0.57074920388921
O          -0.75226376307967    1.82391053579753    1.40849539737019
H          -0.44905188360115    0.91606779727596    1.59056383053040
H           0.05622459806294    1.99286622219153    0.04094174187746
H          -1.68904097906839    1.74121494866679    1.14698891907712
N           0.57526757118341    1.82628274595972   -0.87047611538583
H           1.47807005522940    1.30910248544069   -0.63565463763466
H           0.77851717135473    2.69347809036376   -1.35346087762649
H           0.00239039531171    1.16871220461589   -1.46817578221692
