    26
        -50.45098320  Gyration_radius:  2.4299162573 Dipole_moment: 1.550
 S           1.29897419880097   -1.04720301565605   -0.48566545411422
O           0.91162958483867   -1.43298078536951   -1.81232945704045
O           2.57443898867279   -1.43991520466107   -0.00465163347237
O           1.20009721893903    0.49577861417838   -0.37184874919644
O           0.23256710649935   -1.57216674807461    0.51499592541966
H          -0.69216109484452   -1.45629601662853    0.13757228186418
H           0.49730312750009    0.89987440321471   -0.96583566288989
O          -2.17361440081546   -1.12570474885272   -0.28180166313250
H          -2.80290471495824   -1.59977463406160    0.26470389139603
O          -0.58083770946139    1.59320408289358   -1.86842994239803
H          -0.98449687860339    0.80220976839296   -2.34271566093822
H          -0.17109706643938    2.13501189711159   -2.54492109348958
O          -1.39086207626840   -0.63261605456994   -2.89948649270743
H          -0.53111533125509   -1.06533075300367   -2.73289016414594
H          -1.97421049082511   -0.96848098748688   -2.20514323157973
O          -0.18034070056901    0.49112001058126    2.47402215069040
H          -0.25557523716899   -0.46271428998607    2.38832529623776
H           0.78968591649616    0.66035920363561    2.38788259611126
O          -1.92980602900754    1.26038218378397    0.61440604182369
H          -1.46967289251434    1.73958367727026   -0.08404826008612
H          -2.18249871829667   -0.16443449355178    0.04561611180503
H          -1.28205388945821    1.11846621872561    1.34647742634818
N           2.50966749635603    0.47767940581213    2.18440647553427
H           2.89316098160220    1.32076039468332    1.77574940946513
H           2.60501214328495   -0.25757938252747    1.48752575396602
H           3.08871045752082    0.23076724410633    2.97808412450136
