    26
        -50.47250273  Gyration_radius:  2.48742651673 Dipole_moment: 2.893
 S          -0.73478455572447   -1.48425076247577   -1.54971389721543
O          -0.08673860725784   -2.46629780659780   -0.68883654724805
O          -1.43556240586303   -0.47049240650285   -0.78503421033153
O           0.17869947722720   -0.93664501762228   -2.53413691411235
O          -1.84538069385601   -2.26701938103424   -2.36430107804443
H          -1.30813338613507   -2.81406715516688   -2.92690530104276
H           1.23658988950816    0.07529999543558   -1.90564537281514
O           1.84768727003156    0.74953948780395   -1.50774863860151
H           2.61567019831749    0.77932238868728   -2.08012259853472
O          -1.79920330819826   -0.00718856421516    1.84917529577952
H          -1.94489255893050   -0.16320042594294    0.89769729599451
H          -1.38402712985605    0.87349093025580    1.89585773797256
O          -0.26575521111266    2.26304404076022    1.54906412335866
H          -0.42003104128038    2.25692862440150    0.55973421994966
H          -0.41856260832319    3.16166324746075    1.84160749060651
O          -0.56931913670230    2.04517809425223   -1.02864223704048
H           0.32703179093835    1.86688768137354   -1.34916560537441
H          -1.01577604459577    1.17510436680595   -1.05743382380985
O           1.92317163397934    0.62424075156089    1.22098409901968
H           2.00251247992046    0.66947997473171    0.24928543214000
H           1.26815504111552    1.30584361170026    1.45685947766317
H           1.11209921384561   -0.71134177305216    1.54463896632567
N           0.37808953122957   -1.46843922896719    1.67427914126865
H           0.65003209812250   -2.13969144107231    2.38302727069126
H           0.22109475968411   -1.94437991472676    0.73891898543666
H          -0.53266669611149   -0.97300934787226    1.91655669796073
