    26
        -50.47250214  Gyration_radius:  2.48744646937 Dipole_moment: 2.897
 S          -1.87237239134053    0.62358531344626    1.11772105719360
O          -0.94023738055420    1.38710785898803    1.93861558855597
O          -1.53220947856954    0.68530673344828   -0.29083214344475
O          -2.04911546049441   -0.72902534257788    1.61033777901840
O          -3.28034163445615    1.33517579509993    1.26181726601850
H          -3.48533629519036    1.15288165957860    2.17243127424961
H          -0.78960579923224   -1.66409219741713    1.33319375177075
O          -0.02167038122261   -2.24798159066777    1.09699057898589
H          -0.02619614584929   -2.96112906094453    1.73710004761666
O           0.42556950434152    1.88477522561613   -1.71108073854448
H          -0.44231471168347    1.59042348399762   -1.37812052225321
H           0.82620507349195    1.08598021448530   -2.10043553346093
O          -0.87482254539230   -1.61683467363782   -1.47682462085686
H          -0.63170311942958   -2.12935275701549   -0.69187196250060
H          -1.27822713949504   -0.80030245282318   -1.11939992694307
O           1.39318425198804   -0.62932319396840   -2.29237172829788
H           1.65939711575302   -1.01568164031768   -3.12693321160558
H           0.51131718233387   -1.04156262837752   -2.05805108331234
O           2.18602092410602   -0.82841026253144    0.33805342125020
H           1.46183705976029   -1.39047572283341    0.67307836056855
H           2.08572070917784   -0.83096175669111   -0.63097084949539
H           1.78675976076274    0.67666756560684    0.68778019728512
N           1.35746585476273    1.64730738999638    0.73470249945812
H           0.45267024256260    1.58548069718448    1.28565242448683
H           1.08658578501623    1.91058818402645   -0.26082515330366
H           1.99141902884807    2.31985315832439    1.15024321756702
