    26
        -50.45098308  Gyration_radius:  2.42978900556 Dipole_moment: 1.553
 S          -0.69525516688024   -0.54054589560449    1.49871123675412
O          -1.07328517403655    0.69075332840865    2.13126842307595
O          -1.07683610087159   -1.76525888378965    2.10469793853688
O          -1.23893515350475   -0.53659616325393    0.04689129428085
O           0.84885341088797   -0.55705777568097    1.32758430222431
H           1.18214206848233    0.34947777805685    1.04820528890435
H          -1.31179577068366    0.38163937122970   -0.35503770722256
O           1.76460491888163    1.66852117149800    0.41482309840718
H           2.72142092349778    1.68855966731688    0.47450801283220
O          -1.44994256999320    1.78505388334446   -1.03997606202765
H          -2.36982910284065    2.00998208466658   -1.18938705957833
H          -1.12186725971975    2.39696074515261   -0.31092956082324
O           1.40362541959963   -1.68414350194497   -1.25946466619438
H           0.63420991113701   -2.27743266125908   -1.07735059915931
H           1.82600697108215   -1.58541220762155   -0.40231667760908
O          -0.55863508479194    3.06240428399759    1.02084109326944
H           0.39656971800628    2.94524883339537    0.92570674413411
H          -0.83708583037129    2.35040511821728    1.62891412124006
O           1.09654083047295    0.87898983177432   -1.92752130315937
H           1.54617156629005    1.44792095212765   -0.55200769213761
H           1.17346318372873   -0.10004523469532   -1.82165034388239
H           0.15743721515313    1.08465366097526   -1.99828559899670
N          -0.54709343849815   -3.30038908786358   -0.31035395302200
H          -0.34108805857928   -4.27935211956084   -0.15093741201535
H          -1.41953821017010   -3.25004231925632   -0.82143574661686
H          -0.70985921628827   -2.86429486952351    0.59450282878735
