    26
        -50.45110051  Gyration_radius:  2.45078917302 Dipole_moment: 4.599
 S           0.57867750875175    1.74818345386256   -0.04797528559688
O           1.19044563312159    0.64395473194081    0.65611986918656
O           1.15499501746120    2.06533188744027   -1.30718045092724
O          -0.93820171981903    1.45932436041092   -0.18225901153365
O           0.55491807589934    2.97846991969908    0.86677957010158
H          -0.03987334814290    2.71559854949106    1.63143759530152
H          -1.15388190487728    0.70924440014026   -0.84737018757385
O          -1.52907483306917   -0.46089043710016   -1.70820682930299
H          -2.47249358084672   -0.50044058075614   -1.87715919557466
O          -1.13081886292748    2.05571310653422    2.58778077684451
H          -0.98500529728051    1.08474778007427    2.58143422458166
H          -1.95415614645762    2.20150441708185    2.11492182730359
O          -0.46598684914031   -0.54783213360796    2.24564194306168
H           0.21262327681230   -0.16410775522771    1.63522901429079
H           0.01962689875881   -0.96965139176500    2.95760280623258
O           1.09475678894736   -0.25363727933714   -2.85696939402827
H           1.28681982586485    0.61053576382498   -2.46634333872543
H           0.13835556541084   -0.35705343395191   -2.80209884566899
O          -0.91280335318897   -2.23999150953124    0.00892682561556
H          -1.31463060387839   -1.23460596289420   -1.07293192215059
H           0.06113096783765   -2.31016993005896   -0.21582136067900
H          -0.94572084178788   -1.76644861545449    0.85322232066082
N           1.64920398318243   -1.99329749441918   -0.60529784928259
H           2.41481947313101   -2.65465963198289   -0.57834119220036
H           1.89185439304580   -1.20148123816961   -0.01756343270651
H           1.59441993319497   -1.61834097625066   -1.55357845719812
