    26
        -50.44593653  Gyration_radius:  2.5057306995 Dipole_moment: 4.476
 S           1.61964206531064   -1.31023728702961    0.86794820597976
O           2.03654154151304   -0.06172406578519    0.28129910261877
O           2.02496373348179   -1.55301443782034    2.20690505999705
O           0.03851309254082   -1.33165949148677    0.80780017076285
O           1.95990617305395   -2.45430781827351   -0.07385716367818
H           1.75420197652916   -2.07059336377999   -1.04829906906117
H          -0.25248694170264   -0.62588503166314    1.46761738065847
O          -0.55189254093926    0.57064656748065    2.40339790589307
H           0.18812035721482    0.56924779155412    3.01427679161608
O           0.56174948412130    1.61236628969325   -1.19270585015068
H           1.21357200325474    1.10957539782039   -0.66978452416038
H          -0.13408305012190    0.96966108206319   -1.42764458753407
O          -1.29454576339972   -0.40777396358707   -1.39083524340260
H          -0.88414252103785   -0.91965866583224   -0.67429602589313
H          -2.04193897309972    0.03720681341480   -0.96316466194903
O          -2.90170571350354    0.66367184623004    0.64673384249024
H          -2.29817877768755    0.52346743184978    1.38730688303680
H          -3.75191744108202    0.30872609503559    0.91023287599256
O          -0.64329206407627    2.67710006287215    0.90121180525349
H          -1.56162626376406    2.69518870370247    0.61772821529383
H          -0.49871870505089    1.43404387627262    1.88295404877835
H          -0.12151511409748    2.42861788007453    0.09485458823149
N           1.43485039694071   -1.36496735738386   -2.30567470886488
H           0.43655463178216   -1.20492670287361   -2.39477785471996
H           1.77289369549537   -1.82843291219766   -3.13877496840479
H           1.89453473832844   -0.46633875038085   -2.21045218879286
