    26
        -50.46862861  Gyration_radius:  2.47517097281 Dipole_moment: 4.025
 S           1.68876113301274   -1.42777017382311    0.39536679752727
O           1.43330548631749   -0.79213779573229   -0.90851750985233
O           1.57478299006211   -0.47539532832063    1.46588500846708
O           0.91047208084627   -2.63810340445981    0.55924719108793
O           3.20353165426363   -1.90196366232876    0.34205113355486
H           3.11102207699453   -2.76633873515029   -0.04444602977503
H          -0.56348688598964   -2.06817701137605    0.86064375849968
O          -1.47845458935116   -1.70210047323600    0.94221500408930
H          -1.92479523632593   -2.24606308824803    1.59350507600716
O          -1.64578230792244    1.45891252577663   -1.61436265103330
H          -2.21571385579288    1.72322745276713   -2.33666576806619
H          -1.49771519385332    0.47178017431524   -1.71521268346267
O          -1.10867881437556   -1.08020362387134   -1.71901682043213
H          -1.49305857703245   -1.44654615398085   -0.90790871885748
H          -0.14459620658944   -1.08854099936132   -1.55552083129338
O           0.56878793439935    1.96772300779332    1.80979217240163
H           1.02371790407129    1.11979020625362    1.97037855837760
H           0.82115533327073    1.98181409177074    0.32594990675767
O          -1.85208672963160    1.03413937614047    1.20177204177187
H          -0.38850523339636    1.73280958619889    1.79692011518580
H          -1.96864048291922    1.29103308820070    0.27711729638507
H          -1.72869283174254    0.06943155019585    1.19388224255281
N           0.91175191754865    1.77591648793351   -0.74265497847324
H           1.58061085820668    2.38889813074181   -1.19387466257177
H          -0.02985058095891    1.85526108075750   -1.17191913756118
H           1.21215816688597    0.76260367104221   -0.82462652128748
