    26
        -50.45603356  Gyration_radius:  2.53131317024 Dipole_moment: 7.430
 S           0.72043990524598   -1.47992625982502    1.15410317466823
O           0.48871872873619   -0.07164659858503    1.47083230343749
O           1.19516338845538   -2.25074258052139    2.26624082192975
O          -0.68861453848138   -2.05726265926698    0.70195654712791
O           1.54109326168011   -1.57795732458517   -0.06005243269806
H           1.73062012187842   -0.14432008681440   -0.54573501589072
H          -1.20320464142861   -2.03437122752793    1.53174892606599
O          -1.18558480249082   -1.63168579710579    3.26349248724328
H          -0.27671047503446   -1.98394408239335    3.24564300624522
O          -0.24403770279788   -1.85651137905093   -2.07290498653858
H          -0.98279074652937   -2.27634221843115   -1.62455011666354
H           0.48113618163090   -1.88638144899943   -1.41975912137009
O          -0.63034587524573    0.77191753812428   -2.12028920164745
H          -0.58340085193220   -0.19322302246619   -2.31574944415462
H          -1.17325822111633    0.83028067317096   -1.29444701252644
O           0.00798758011135    3.31873867616047   -0.87159477029784
H          -0.25555500179693    4.22663211826544   -1.02686641868752
H          -0.36587887208538    2.79249431950838   -1.58860494645619
O          -1.56530508026353    1.10436667919567    0.33112984670729
H          -1.08761030055835   -0.67736661812505    3.31927655986652
H          -0.86692016180649    0.59975872413508    0.80695570030683
H          -1.34248051261736    2.03056360023765    0.46709800626473
N           1.63513137434771    0.88204901391113   -0.84203484695159
H           0.75609092967925    0.92131474119590   -1.47670151971126
H           2.46633069387806    1.23264448731859   -1.30586679744683
H           1.42898562855540    1.41092071250560    0.00667925118068
