    26
        -50.45963360  Gyration_radius:  2.52009397671 Dipole_moment: 3.918
 S           0.65673664497839    0.36183690123277    1.87039870879696
O          -0.62261422871145    0.99142202290964    1.58328648251631
O           0.51300105957821   -1.03896466219245    2.22854266090791
O           1.62897261777856    0.57844756384258    0.81476268485638
O           1.22908436951238    1.07807168201936    3.16364126723070
H           1.36597025633068    1.98057356564550    2.89043651864559
H           1.38259944831353   -0.87140409379864    0.00893185356616
O           1.21180590566116   -1.69993488771917   -0.48581035187365
H           1.40102505775425   -2.40243115238705    0.13922956381171
O          -1.56495445640363    1.00533804617249   -0.98930850176004
H          -1.00794109888393    1.51583610643430   -1.61024100052261
H          -1.19898909797043    1.17387942655421   -0.10541750095982
O           0.17607498983694    2.22298453126378   -2.67279998984184
H           1.00619623743124    1.77265254522628   -2.40319372500353
H           0.10345468672530    2.11262114782955   -3.62163675757652
O           2.29112851878912    0.77319841524132   -1.84502316126670
H           2.12955535904296   -0.16681671026135   -1.97289447624740
H           2.21127214642286    0.90916241957101   -0.88832128755405
O          -1.43488134090786   -1.60093301101031   -1.03970518228340
H          -1.82785458077357   -1.54144037752775    0.38052068986264
H          -1.54845817423247   -0.62948967019826   -1.22190949129279
H          -0.46514901544367   -1.73538954579531   -1.00142213720953
N          -1.93461279084845   -1.29254054256721    1.45313602947371
H          -2.02954702968735   -0.26832778282682    1.51044895641619
H          -0.98532483802931   -1.44092468163600    1.89492093601031
H          -2.68655065620147   -1.78742722605116    1.91942723129421
