    26
        -50.46862851  Gyration_radius:  2.47474910177 Dipole_moment: 4.027
 S          -1.23853137081162   -0.40223286214630    1.82989231847078
O          -1.51973418664148   -0.97104527584832    0.50069639032893
O           0.16281018117000   -0.48045237299495    2.13986206246838
O          -1.83382779240648    0.90881010987419    1.98491595804836
O          -2.00385216166523   -1.33987459000895    2.85831573233961
H          -2.86140720359258   -0.92822033014224    2.87922423223378
H          -0.84408859965465    1.83574441418283    1.11851463526755
O          -0.28629177543382    2.37076903554971    0.50192669895275
H          -0.15979026291792    3.22017399920195    0.92832427667587
O          -1.58690031660926    0.89255618944366   -1.42930678909147
H          -1.25118905417545    1.65111188979192   -0.92764572684823
H          -1.73847656825775    0.20290847673702   -0.75280751480198
O           2.43557950233219   -0.92609871162628    0.82335016746024
H           1.45299897062613   -1.60762220336288   -0.09053050827320
H           1.79426570452346   -0.76409773654269    1.54048920677820
O           0.48778211376355   -0.03845123165974   -2.68482869945441
H          -0.34076568430357    0.35109171613139   -2.27470076987302
H           0.37797139714613    0.02721629218908   -3.63353511176357
O           1.98890894196919    1.26083790929067   -0.63225401091353
H           1.24071204318861    1.68455044922713   -0.17762451557783
H           2.50132069843955   -0.06132916738185    0.35476146984312
H           1.62997513735369    0.91326658851612   -1.45982245125421
N           0.60952214630750   -1.91059643387307   -0.71460092801178
H           0.64127935464005   -1.36299225335130   -1.59567871586165
H          -0.26544178496111   -1.61830063994352   -0.19224391473796
H           0.60717058997356   -2.90772326125441   -0.89469348240537
