    26
        -50.45111060  Gyration_radius:  2.41257255145 Dipole_moment: 3.945
 S           0.58479470035491   -0.66587075470941    1.89671824142139
O           0.97135964275335   -0.44277010743777    0.51352184332443
O           0.97184016619711   -1.91299972196281    2.44099261637873
O           1.11003625732656    0.49499402008452    2.74538251377004
O          -0.95670952009545   -0.53888606325890    1.98554007207740
H          -1.31619429334516    0.11973293808148    1.31275125378868
H           0.77582728510880    1.37325807596284    2.34335282071343
O          -1.86131209969306    1.09706195477509    0.22814991133214
H          -2.81614234800344    1.15189323212307    0.30533040217862
O           0.16128848317213    2.53639231537859    1.55045163145034
H          -0.71509644263876    2.27306666546284    1.23530923596025
H           0.71229581391563    2.56544303873388    0.73597695382861
O           1.26601462139883    1.91073589743989   -0.78345613330622
H           1.28507676705322    1.02324287461626   -0.38033846050364
H           0.59419542911279    1.87106348303944   -1.46826675620685
O          -0.57811924635784   -2.63069001310254   -0.05337665968248
H          -0.66226519252765   -3.15926970840601    0.74233487462883
H           0.11702167270445   -1.98700450072226    0.13642825733668
O          -1.46802977803625   -0.56347706221350   -1.67702288244054
H          -1.43834615569641   -1.40527458078464   -1.19510967804052
H          -1.68720770217382    0.50115082972314   -0.57921998042970
H          -0.57526246782613   -0.50455301678776   -2.09254249096816
N           1.11921450705408   -0.69307588574537   -2.49462108828721
H           1.43398340791936   -0.82946823055130   -1.53885695943418
H           1.73256428540288   -0.01270034225533   -2.92657606912852
H           1.23917220694603   -1.57199535744675   -2.98285348977806
