    26
        -50.46158824  Gyration_radius:  2.434083338 Dipole_moment: 2.656
 S           0.54766118545596    2.09736361349179   -0.05976377709916
O          -0.90959795433920    2.12349361329852   -0.17977297311918
O           1.01013606694382    1.96931118292237    1.29517587088071
O           1.11046999852150    1.08970080692780   -0.95632881904139
O           1.04899701251012    3.49714572274524   -0.58839039254292
H           0.66992576437760    3.55798255580460   -1.45947860043404
H           1.51609248570725   -0.08063135354307    0.16796310488308
O           1.58043485526206   -0.72107333459764    0.90765813679077
H           1.85528395317012   -0.18407815188738    1.65670051791336
O          -1.91782578098073   -0.12050818236751   -0.75991921202459
H          -1.61120970046861    0.83526620063506   -0.57126597092709
H          -1.24815559429783   -0.46602037256014   -1.53366880229554
O          -0.14562566892902   -0.81053523237792   -2.35247381076433
H           0.46162351220199   -0.10619891568758   -2.05218876334009
H           0.19942152583761   -1.65318160060554   -1.93680402655957
O          -1.23629986411677    1.22582842286696    2.51350087689655
H          -0.36294313876725    1.55606637194762    2.22280326923582
H          -1.87181789900020    1.75494545205941    2.02463688187497
O          -1.04215886422981   -1.14623054104170    1.35095480782433
H          -1.63495652477590   -0.64587926569776    0.11446857859419
H          -0.06754711249873   -1.13817712486699    1.22045385205568
H          -1.21496286534582   -0.38825048202303    1.95981042631841
N           0.72128701622070   -2.89011898809990   -0.93491964543335
H          -0.03733620068286   -3.32482429262783   -0.42401508573743
H           1.30786895430144   -2.40921616146824   -0.26000634385801
H           1.27123481684604   -3.62217994347586   -1.36513008071807
