    26
        -50.44796611  Gyration_radius:  2.51017952966 Dipole_moment: 4.522
 S           1.46391872585876    1.54208697648970    0.87047390758695
O           0.31935698455670    2.41243941844419    0.69770818684488
O           1.44354179233044    0.77998352977877    2.10272358369619
O           1.65357236253787    0.66599168135867   -0.28945533682514
O           2.73597488243890    2.48576947397957    0.93168294777352
H           2.52474532565120    3.17002945092356    0.30349855711566
H           1.12820118054703   -0.71474970062754    0.27185537557213
O           0.72836683382909   -1.48978194395398    0.75705618109403
H           1.13194979184337   -1.42595087848827    1.62958807615848
O          -2.36653681704187    0.36602444652582   -1.03700199079950
H          -2.96950181683452   -0.11291210142787   -1.60762363900302
H          -1.49665808926668    0.45719047339897   -1.54977777015580
O          -0.12276061101100    0.31351265812099   -2.26869981275849
H           0.55560347795151    0.60305813283890   -1.62974636466843
H           0.01124804439821   -0.65659757594143   -2.35092117470349
O          -1.07871836891966    1.25694539199397    2.54021657846971
H          -0.88714732487419    1.92523225504686    1.84457109053099
H          -0.16671224584216    1.00205850369772    2.79136428418282
O          -1.68113033180231   -0.70438102681194    1.12192393859625
H          -0.74654246396804   -1.09108603744093    0.94842941010194
H          -1.52362047438798    0.12126219122971    1.78487153933307
H          -2.01471802891363   -0.27595015906331    0.22453259856885
N           0.24583027104921   -2.41064533587010   -2.09639099247561
H           1.08437286413333   -2.65668011858346   -2.60737993299566
H          -0.44600017017398   -3.12744910451030   -2.27583510322345
H           0.47336418593028   -2.43540060106603   -1.10766411802531
