    26
        -50.44795815  Gyration_radius:  2.56554519713 Dipole_moment: 4.587
 S           1.50631080003828   -0.64635421077159    1.16193061800846
O           1.20978350067828    0.49051432049685    0.30678732959598
O           1.56400668679875   -0.38207779228594    2.55255074694655
O           0.40906014649427   -1.72737278582080    0.86242140215078
O           2.76201618769741   -1.32854246710499    0.65190301308179
H           2.82006019549930   -1.22117904405080   -0.42291019157804
H          -0.46074319849445   -1.34913738834447    1.20865540139027
O          -1.78821531064604   -0.62606162310258    1.55126419785051
H          -2.44697883320900   -1.22242400189562    1.91158680622497
O          -2.23099135558366    2.71478225258675   -0.35631201894387
H          -2.90193204149037    3.29499519295302    0.00497415772195
H          -1.57815291494778    2.56467802924080    0.36771716110620
O          -0.00279765165307   -0.70653113557089   -1.71294953458005
H          -0.12115500344419   -1.53353395129109   -1.23325885415525
H           0.37482810499832   -0.08921041746377   -1.04955852090019
O          -0.60775382552192    2.00754596377747    1.64753259561293
H          -1.03354821637745    1.25339533522363    2.06998632517495
H           0.17535580249852    1.63781873354906    1.20826000470236
O          -2.52390320709381    0.09961057656555   -0.80858252271746
H          -2.52427610327702    1.08140638479165   -0.75215079232735
H          -1.76511285233049   -0.12050136326643   -1.37382987285675
H          -2.13118612425273   -0.33576895069475    0.64052586478595
N           2.83536111773795   -1.01779631855710   -1.86034718682056
H           1.86153390652515   -0.93901879659134   -2.15916775632252
H           3.29546431582896   -1.75891176350333   -2.37180922065783
H           3.30296586351320   -0.14032475887184   -2.04521915251020
