    26
        -50.44729880  Gyration_radius:  2.49657361511 Dipole_moment: 4.458
 S           1.17553551005150   -0.63182071857542   -1.49745107449970
O           1.41999198957771    0.00779952420036   -2.75402970292246
O           2.15389161429913   -1.55042892365532   -1.02330126109861
O           0.95952119511094    0.42245890976344   -0.38438574588625
O          -0.21063459191429   -1.32574778226409   -1.61989332851390
H          -0.74434562959093   -1.30457852744131   -0.75981382628978
H           0.09911785889000    0.92478215247734   -0.51089226805238
O          -1.67781103717890   -1.09866931301659    0.44167650705827
H          -2.09496473208922   -1.92218881184385    0.69834688875615
O          -1.39022189104744    1.42881861575369   -0.70363731259385
H          -1.86352875605384    0.64817675375504   -0.37960114296089
H          -1.39362342078161    1.37674572502133   -1.69170088617693
O          -1.01140456359693    0.92169133276778   -3.25854782152151
H          -1.44737978134601    0.13793944492111   -3.59961949754110
H          -0.05944176537728    0.69012648149505   -3.21331866586689
O          -0.59374458902557    2.35141835544082    1.85710973344820
H          -0.85000172651938    2.28001705220894    0.92756625468236
H          -1.29337701950952    2.83021197236439    2.30467109868206
O          -0.27751851112755   -0.34014626000037    2.40052126811445
H           0.65199551130454   -0.65404772047192    2.22746010327222
H          -0.25374887977083    0.63003660283651    2.31656194982583
H          -1.11322462909587   -0.80091899425345    1.25583848257699
N           2.19739375461600   -1.19533907574783    1.83523812037254
H           2.84722000483824   -0.43903672626617    2.01202379654794
H           2.20834654205287   -1.36349060951326    0.82975996609567
H           2.56195755329143   -2.02380945995323    2.28941838448383
