    26
        -50.44503246  Gyration_radius:  2.692729028 Dipole_moment: 6.887
 S           0.76933680055533   -2.61063808599731    0.83902232402767
O           1.56033468731862   -1.53345298416940    1.38813161521413
O           0.57359171434744   -3.74307631314027    1.66808246179500
O          -0.61978715854619   -2.00781721747894    0.42718774350899
O           1.31789988156606   -3.00430825964169   -0.53640498598197
H           1.60197894330777   -2.12273805946496   -0.94148824322985
H          -1.02211605783331   -1.49159099331979    1.19019479022744
O          -1.61031058831330   -0.50137572395250    2.26938246214202
H          -1.59256626962671   -0.90036383402797    3.14083518987435
O           0.08018688833725    1.13069850784166   -0.73121072660708
H           0.06561793091836    1.91235640654571   -1.32713559266224
H          -0.82916018270025    0.76463508618724   -0.73962119503371
O           2.03920027997524   -0.63636547701671   -1.14289105481002
H           1.28492437245363   -0.00130150068824   -1.10626032018167
H           2.44858219563940   -0.58048582489727   -0.27107639494891
O          -2.36560496501738   -0.00298523371209   -0.50733403371428
H          -2.51920290131757    0.06459118057893    0.44234068786133
H          -2.09417412809412   -0.91473620313456   -0.65824752925197
O           0.52953753928068    0.89452455704776    1.93789703364882
H           0.42699628071763    1.17880128009963    1.00859645099677
H          -0.84459528008571    0.15484076077708    2.23936896584990
H           1.08046187568435    0.09209555808077    1.89054860543089
N          -0.05090318321309    3.26060088398636   -2.44415655304835
H          -0.99419440755973    3.33749558843081   -2.80406038895147
H           0.57407652875621    3.12108606424507   -3.22829597068634
H           0.18988918345289    4.13950984682354   -2.00340533146333
