    26
        -50.44741029  Gyration_radius:  2.70347269644 Dipole_moment: 1.625
 S          -1.28726827333522   -0.03599525380422    0.01368960338674
O          -0.31338301017144   -0.09753866698338   -1.04738918114780
O          -2.65025250781208   -0.00961697007017   -0.39601562281188
O          -1.03808101411639   -1.22735623299716    0.97841039236737
O          -0.96869534811042    1.16498076813791    0.91928871755678
H          -0.13212469312854    0.87994018236136    1.45320266055393
H          -1.68874819832398   -1.96315772875991    0.67056022696547
O           1.11152177048281    0.37390316125814    2.10661805598681
H           0.86066532039771   -0.49897044902844    2.41963893517308
O          -2.72162306780194   -2.75657561847826   -0.08542105811761
H          -2.24112131687697   -2.85118197740813   -0.95676825400513
H          -3.34169733341707   -2.02962261133520   -0.22231489117512
O           1.07128492118883    3.20764760526798    1.52339567256620
H           1.27441003109078    2.46576391096079    2.10438270165610
H           0.17527153691454    3.05599944293568    1.20740703914581
O           2.79323276188892    2.68135060439986   -0.51721948675233
H           2.17079921163326    3.00397042957980    0.16619146907392
H           3.64411895069708    3.07421118874909   -0.31783973641312
O           2.22817304470011    0.06452234838677   -0.16761786403723
H           1.39188894824121   -0.05904380185188   -0.65327159713910
H           2.53916870744599    0.96027915563826   -0.41788760738021
H           1.67232246596754    0.21944402854768    1.26810902833168
N          -1.29866975463854   -2.51153064963981   -2.31471858600735
H          -1.82353681611439   -2.33842211751970   -3.16303903073470
H          -0.54404683364940   -3.14632019527460   -2.54449337156627
H          -0.88360949972634   -1.62668054606098   -2.02689823714028
