    26
        -50.44736868  Gyration_radius:  2.47015394147 Dipole_moment: 3.373
 S          -0.12841122064895    0.09539172318928   -1.68333536228766
O          -0.51811420919893   -0.92109713240285   -0.73742822508029
O          -0.04457803753628   -0.34583092572353   -3.03529721253609
O          -1.17245029779947    1.26795713134564   -1.56095420631284
O           1.16486846587138    0.75696058232334   -1.26389949732727
H           1.18086800320453    1.17474559810968   -0.28079387490526
H          -1.98478077760638    0.85404180348707   -1.93136809866394
O           1.30034277571823    1.72921075839652    1.01507066783718
H           2.15616010108305    2.15878554465977    1.07381536075329
O          -1.22291519881444   -0.64483555729189    1.92436046423630
H          -1.07213614387557   -0.91594079425303    1.00686126869763
H          -1.51970775871759    0.28187396255915    1.86681443838703
O          -1.49638631899764    1.99226215390591    1.19368094118939
H          -1.58050368595706    1.93765874399011    0.23520243923490
H          -0.56976957614212    2.20541602731282    1.35997020502771
O          -2.71019353745282   -0.55964893257635   -2.58372230352016
H          -2.70315460903852   -1.24482489130464   -1.90869835463035
H          -1.96037629483873   -0.74426666129170   -3.16763014946386
O           1.36343360458593   -0.34462214158109    2.41165863319471
H           1.34661515764578    0.88524112259084    1.65218212621488
H           0.39416822740553   -0.54128347786903    2.44840674313190
H           1.72695994602155   -0.99720872356516    1.76661755838186
N           2.03059167600638   -1.89903758623214    0.29744279387222
H           1.12419763349380   -1.73799112330285   -0.13550362637190
H           2.16288794139266   -2.89961856136648    0.37618235875143
H           2.73238410419051   -1.54333863311777   -0.33963508781054
