    26
        -50.44795823  Gyration_radius:  2.56518131236 Dipole_moment: 4.584
 S           1.55297799126340   -0.31009067364635    1.23550095221061
O           1.17058442536569    0.62337400661905    0.18947889814540
O           1.59584105375131    0.21213804703335    2.55175498496553
O           0.53721026704235   -1.50380188027063    1.16071193105834
O           2.85368417127555   -0.98354925061474    0.83943538756171
H           2.90042362899201   -1.07294197670429   -0.23780380965224
H          -0.35673257337325   -1.13080251013395    1.44579908492780
O          -1.73231616903440   -0.45271011019080    1.67071232972556
H          -2.34519608728645   -1.01634401243114    2.14628224283343
O          -2.42436148041842    2.43390297434453   -0.81493533720966
H          -1.76006066544782    2.46821268416675   -0.08657575733781
H          -3.13546665713393    3.02087015113940   -0.55578995508586
O           0.04324593440864   -1.01290552023998   -1.55225248990817
H           0.37653049301891   -0.25773644330157   -1.02074751462965
H          -0.01254936472063   -1.74289956646229   -0.92613871429340
O          -0.74746172977910    2.23021357843925    1.25776863122984
H           0.05874200670926    1.84144575095537    0.88115757890089
H          -1.11528861973897    1.53968068592903    1.82033839812883
O          -2.52650114440876   -0.23373442902758   -0.77017954041329
H          -1.75550702379474   -0.50067920111071   -1.29746570017869
H          -2.09834326235282   -0.36218827957534    0.72771610748574
H          -2.59841068821362    0.73887279341211   -0.89667015036426
N           2.89607391065219   -1.13806751357257   -1.68783036041126
H           1.91819620639398   -1.18818942784625   -1.97957575965003
H           3.40976370711528   -1.92460287065675   -2.06200857561664
H           3.29492167971433   -0.27746703625037   -2.03868286242631
