    26
        -50.45870232  Gyration_radius:  2.44945449913 Dipole_moment: 6.227
 S          -1.52882934987814    0.09760396885704    0.87465888193780
O          -0.81067914148552   -0.73998952081302    1.81379986765397
O          -0.72347619316551    1.21393364448371    0.40462375019859
O          -2.13105007683869   -0.66136663405515   -0.21016118100578
O          -2.73572636423537    0.75571578427879    1.65937685527831
H          -3.36995693930524    0.04775003512567    1.70592715208932
H          -0.64589553149626   -1.39163697743996   -0.53796701198653
O           0.26838742790199   -1.73193827117729   -0.51705848457655
H           0.38827106634169   -1.99551619425856    0.39856244249329
O           1.80926926272833    1.35223790434824    0.68509549421591
H           0.80776118502394    1.45626721184974    0.64858186885035
H           1.95670323718614    0.65303114236973    1.46054037607861
O          -0.09330220056775    1.53629220586051   -2.27055071383036
H          -0.75165772383528    0.96409468819843   -2.70982256809938
H          -0.43326252847631    1.65684290658212   -1.37009774151707
O          -1.95944431597950   -0.33615360809352   -2.89274400141433
H          -2.18025682380111   -0.42628268795341   -1.94815858116109
H          -1.62210368998863   -1.19047206506700   -3.16900206866389
O           1.94616199197877    0.14184687041142   -1.45925566745302
H           2.00247920998416    0.83970958163048   -0.27449024862339
H           1.44506193919277   -0.66834376895871   -1.22132125086599
H           1.28135945492958    0.70637457871990   -1.95112399100220
N           1.84924247753572   -0.38866289101852    2.54116271106608
H           0.85040891671980   -0.60174134832600    2.43473527519313
H           2.00095010636044   -0.04741331497515    3.48113908939294
H           2.37958460322940   -1.24218325059975    2.42354976574656
