    26
        -50.45060089  Gyration_radius:  2.45569421444 Dipole_moment: 6.038
 S          -1.18445214138253    0.63555964497986   -1.41215001831630
O          -0.17670499913022    1.01594690959729   -0.45534951566457
O          -2.35934366145584    1.44902392989340   -1.42015304967655
O          -0.55417611897732    0.57620903128127   -2.79787966814104
O          -1.58460890638015   -0.84271116749931   -1.14123599077323
H          -1.23482323949095   -1.17688506233139   -0.26290833370762
H           0.45518665599855    0.25968338711701   -2.62758540424150
O          -0.73215131797435   -1.77829470517652    1.10303679870725
H          -1.40722885373422   -2.36549657507100    1.44726694660417
O          -2.39227396868110    1.88210581846825    1.25410148425335
H          -2.12252629080850    2.79945451653746    1.33299250475483
H          -2.48556062045401    1.71723837251877    0.29884195851857
O           1.83721688727109   -1.77965945766586    0.18354951455257
H           2.26436699464958   -2.58853654269691    0.47018502591868
H           0.91423017772343   -1.82798571850948    0.49434972892051
O           1.74095847973619    0.84011861485513    1.40182763493801
H           2.04625765882681   -0.03809475650362    1.14156852104018
H           1.12999906314516    1.10048212306415    0.69344981111856
O          -0.64239113810668    0.26664952706082    2.58956525381593
H           0.24785124392273    0.60633536567275    2.35963138755253
H          -1.28558196984161    0.87420435039108    2.16972572709801
H          -0.70752204277238   -0.96612663128472    1.73904846150638
N           1.81713202543065   -0.11666483393585   -2.23153307349274
H           2.37595756257064   -0.51333647441832   -2.97578379023916
H           1.78810775350875   -0.76691948840910   -1.44715232311964
H           2.25208077639968    0.73769981207431   -1.90740959192717
