    26
        -50.45870182  Gyration_radius:  2.44978524272 Dipole_moment: 6.208
 S          -0.69740737061157   -1.61661566339856   -0.06354765863784
O           0.68383470459999   -1.99992823173780    0.14883950756237
O          -1.10658343539561   -0.52685897716704    0.80857486838629
O          -1.00363464075817   -1.36621225034768   -1.46312488972890
O          -1.59654062450055   -2.84867595763856    0.35915016105998
H          -1.50786481991561   -3.44031575818411   -0.38092225766325
H           0.30057598957886   -0.29849945500396   -1.57464691955475
O           1.12049241587798    0.20988872935852   -1.42928547759782
H           1.71895931592760   -0.43744074237711   -1.04816812351291
O          -2.17200371793911    0.76407767926220   -2.65648576381752
H          -1.87826301859220   -0.08637800786567   -2.28274250318052
H          -1.50739923608926    1.01473016221863   -3.30094377926172
O           0.52937245744134    0.95007676373300    2.09549803797515
H           1.38976230087502    0.34119744493684    2.08502926062957
H          -0.19354803628029    0.34331379488960    1.74309599307988
O          -1.96358383665358    1.90312024615860   -0.19931011563527
H          -2.18074585853919    1.68057336223637   -1.12502790899267
H          -1.90819924804574    1.04693516539414    0.25330977225645
O           0.58034269110017    2.36576780099692    0.07715546130722
H           0.89112471931582    1.70393386459017   -0.57843098142081
H          -0.41064773611749    2.40273378157868   -0.06140837628122
H           0.61718713608605    1.67597557051830    1.26602880149237
N           2.43414923069659   -0.72661642679195    1.89465053428673
H           3.29297671910973   -0.46469599919686    1.42836165515014
H           1.89589388023401   -1.34368816576901    1.27517303576268
H           2.67175003854679   -1.24639874052833    2.72917765637568
