    26
        -50.45051055  Gyration_radius:  2.44905456922 Dipole_moment: 6.568
 S          -1.60779949792399    1.26840218959144    0.69979315840049
O          -0.37270102324383    1.05613220550180    1.42729623385306
O          -2.65953434888887    1.88887457579121    1.41092180895876
O          -1.27603672851584    2.01834621936779   -0.60245592342317
O          -2.08480665091355   -0.12590314434108    0.18816785170022
H          -1.73895610414400   -0.25797718999369   -0.74860636692885
H          -0.24975593763864    2.07159240914179   -0.76772403763559
O           1.47782817167485   -0.62231620852350   -1.54473299422253
H           2.13955638983935   -1.20656241102489   -1.91547212796489
O          -1.10728287347826   -0.34225553257196   -2.17344379796860
H          -1.18621896343511    0.55573952298460   -2.50852207395620
H          -0.14811596116351   -0.51520917545518   -2.04914021682311
O           2.18492361395551    1.90060034169948    1.41643483969203
H           1.26563604800580    1.77041000937524    1.70267282933872
H           2.61980837442532    1.05550508248741    1.55823912531339
O           1.19242934236838    2.03879310355345   -1.05876166553148
H           1.41275791234727    1.13677018010913   -1.35678560523876
H           1.65442010776276    2.14985070918800   -0.19485776095071
O           1.10739184834421   -1.12056841793991    0.94800887828586
H           0.46352270441222   -1.86498362041342    0.99798244963553
H           1.38892243757399   -0.86390810434341   -0.56702296874581
H           0.58801913788147   -0.33910909871549    1.22304172289510
N          -1.00662286353045   -2.82338661653984    0.97822542959344
H          -1.23000325078450   -3.27941405787615    1.85396748393377
H          -1.16364388851598   -3.49031619946372    0.23291824884751
H          -1.66373797644993   -2.05910678166082    0.84985548892131
