    26
        -50.45887694  Gyration_radius:  2.44031834848 Dipole_moment: 5.960
 S          -0.42669621618283    0.83334172132489    1.51145591839382
O           0.51492295752121    0.28270424338224    2.46750122638247
O          -1.32856273989429    1.83019261865991    1.99955320931562
O           0.32090892796117    1.29167041818452    0.31060936946438
O          -1.32710442301739   -0.36264632162478    1.01662347626579
H          -0.75116108732771   -1.06656264237946    0.65124161950936
H           1.72523396252848    0.85131197083017    0.25348839285219
O           0.19321304874320   -2.16295875294190   -0.23785234357364
H          -0.41596928738843   -2.81176969942072   -0.59405986578335
O           2.10073599996889   -1.61109853746732    1.67843887152608
H           1.49771646750077   -2.12946006254950    1.12447892861983
H           1.51371273701847   -0.98509790192110    2.17723372943286
O          -2.75427132094607    1.73633922550353   -0.22983238524436
H          -3.58776284412691    1.46243231875771    0.15955580862092
H          -2.14752432150119    1.84126138072595    0.53138736128487
O          -2.22665022089068    0.13472628166116   -2.33525509293582
H          -2.38545358359753    0.65778345397803   -1.51670864142098
H          -2.52846764898990    0.69203726403043   -3.05422061481558
O           0.38300127514625   -0.17987564763972   -1.88931270827350
H           0.32385859131656    0.49039140501500   -1.17618264644403
H           0.33167445091208   -1.48123431984898   -0.96381262174699
H          -0.52583511823593   -0.16842795371696   -2.26008608161214
N           2.68516010284099    0.34886537684819    0.10988215548837
H           2.75551797869313    0.08790338041855   -0.87076355866927
H           2.60664853608144   -0.53125821132138    0.74794521912973
H           3.45315375585212    0.94942898151926    0.38869129423155
