    26
        -50.47392078  Gyration_radius:  2.44006927314 Dipole_moment: 2.167
 S          -0.05818555091133   -1.71630692941519    0.88693354027761
O           0.34259762771560   -0.53029179739147    1.62839290894736
O          -1.47430673535268   -1.99655774623107    0.94151419786159
O           0.45958023751209   -1.67798863452635   -0.47403755377408
O           0.65047114094273   -2.93457728461803    1.60646955431298
H           0.01979147149585   -3.62305384737162    1.42991804396376
H          -0.29182569927335   -0.43769632677511   -1.42063186571787
O          -0.72709798514950    0.32844310547835   -1.83718297386258
H          -1.63959206034522    0.29079919050126   -1.51646476855302
O          -2.92065053869203   -0.12203244622377   -0.18088660046801
H          -2.42411630540757   -0.86462319399695    0.23752373757211
H          -3.84632476812578   -0.36866496779300   -0.15595521580565
O           2.58145479564483   -0.59787417704470   -1.63649352164854
H           2.21577048237032   -0.28553137373497   -2.46796066828225
H           1.88888595960995   -1.17512032710574   -1.25129614962674
O          -1.39740162827364    1.58745123335356    1.38904355685918
H          -2.11099678478045    1.16474965721931    0.88549578984635
H          -0.82262433596395    0.85695349057205    1.67019789616311
O           0.14131021625787    2.52037293576746   -0.57003575868606
H          -0.17827567240498    1.85586211371455   -1.22161934825143
H          -0.48280333671593    2.42115321733842    0.18740811661698
H           1.33852989049128    1.79540158651710   -0.01901228219618
N           2.04795014400982    1.07075890041275    0.38624468701307
H           2.44411278929334    0.51266341215271   -0.40840008515024
H           1.47097467798272    0.41450627562094    0.97008472229858
H           2.77277196807303    1.51120393358268    0.94075004028949
