    26
        -50.44576821  Gyration_radius:  2.58154333227 Dipole_moment: 6.265
 S           0.37840374198724   -2.46475795294875    1.49682006966831
O           0.56856895934400   -2.16411772980824    0.09687289089850
O           0.67716556188537   -3.77390814378943    1.93438043289004
O           1.22149790976347   -1.44010697049569    2.31313072935010
O          -1.08378056303774   -2.12174983388482    1.88309596920634
H          -1.41266950400726   -1.30025949163908    1.42514961551832
H           1.36352361833675   -0.61102794835739    1.78585143726922
O          -2.08416412842754    0.00746600198529    0.77383312991568
H          -2.90568550813020    0.19084040432289    1.23194811926619
O           1.74404725072147    0.71680119059272    0.93130078628150
H           2.64674532815696    0.96639799216913    1.13629876152928
H           1.73761350948289    0.41054113018259   -0.02619616397391
O           1.68671347506545   -0.20279822943347   -1.49686260517200
H           1.86076934881964   -1.12289062494029   -1.26576993046673
H           0.73141921681352   -0.20628722057758   -1.70962060011577
O          -0.98552776958577   -0.76861781204057   -1.65172870458816
H          -0.56157977922300   -1.52633053786903   -1.21711074671452
H          -1.58251402085783   -0.42434109356803   -0.97178598088901
O          -0.62392768256650    2.12049396576530    0.73438399783488
H           0.25072759507460    1.78075304756022    0.97658592144665
H          -0.57649249532589    2.28291610307725   -0.24067346171903
H          -1.53236816916566    0.85500518034907    0.82235945435146
N          -0.40547854587167    2.23785684855557   -1.97014863252536
H           0.56830046711830    2.22196075656660   -2.24883861285849
H          -0.86471628932092    2.97977783603717   -2.48276087079570
H          -0.81659154706128    1.35638313217566   -2.26051498560859
