    26
        -50.43516681  Gyration_radius:  2.77203296338 Dipole_moment: 3.748
 S           1.81258306871417   -1.02501764017375    2.25969685572257
O           1.00417902890862   -0.28378951188401    3.18240120075411
O           1.18555458072208   -2.07537464825679    1.53701981402102
O           2.54250939416784   -0.05548038322621    1.30977979967707
O           3.02992873410653   -1.60958124913635    3.05512768411688
H           3.25383001188075   -0.94675600455740    3.70414986657039
H           1.92906455967766    0.35821556514365    0.59738807557109
O           1.07531455051173    1.03558284810589   -0.43929727747789
H           1.70466057206239    1.53026875610054   -0.96792732953820
O          -0.96252536945795    0.40514049051633    1.44997585011514
H          -0.28192913017285    0.75363028049243    0.86193780931818
H          -0.49637974048770    0.17865751574175    2.26808787419257
O          -1.59253948503163    2.34752929131090   -0.68009985379989
H          -1.94409144502945    1.90600152946708    0.10007565037524
H          -0.64088343233850    2.19347863181203   -0.65657116415221
O          -1.12245157771022   -1.96899650884039    0.04448557175799
H          -1.36149148009401   -1.17417587363279    0.55298426502563
H          -0.37782854011369   -2.34864044509907    0.53076817441783
O           0.14573011393042   -0.73197018504221   -1.92357240098011
H          -0.31367916516548   -1.33082809081260   -1.28230497769536
H          -0.59485158130858   -0.28473398452633   -2.41841315814507
H           0.70604520122637    0.26367981309054   -1.08791452268278
N          -1.95027081764534    0.56691944920640   -2.96058310979332
H          -2.78134472629863   -0.00508185139328   -2.87902098330073
H          -1.94662556458577    0.98230869960086   -3.88297552250900
H          -2.02250778049639    1.31901351598858   -2.27519819152959
