    26
        -50.46067620  Gyration_radius:  2.43764098008 Dipole_moment: 5.080
 S          -1.05445966828959   -1.60678047523541   -0.26939618123856
O          -1.70640766276491   -1.48890354126231    1.01855604470728
O          -1.67372319663811   -0.79665571796785   -1.30070320875830
O           0.38118736007881   -1.39014628369595   -0.19056703738656
O          -1.21817381965890   -3.12243244199207   -0.71649675245735
H          -2.15614968572303   -3.26092320443961   -0.63667060756271
H           0.28682759440766   -0.53988396413198    1.28261803144923
O           0.41981896473796    0.01434810157417    2.07827084429567
H          -0.27797829361870   -0.26109322209177    2.67790883487565
O          -0.10257358235407    1.28671687064643   -1.58964650587682
H           1.25430163679533    0.98110717307745   -1.46325239160368
H          -0.66434457808317    0.47634555228711   -1.58567212314005
O          -2.94926702046607    0.82985780002937    0.59902943649747
H          -3.03407245200585    0.71898576058574   -0.35302820710671
H          -2.59838047844111   -0.02911850682437    0.90387323281759
O           2.79092902070602   -0.73987314466504    0.73093028283386
H           2.08979824114170   -1.33423347760574    0.41113462993496
H           2.40554160668538   -0.33154831243132    1.51779029275049
O          -0.64221407075218    2.19815731502887    0.78584761758138
H          -0.32180629156865    1.75613938065291   -0.73155330480978
H          -1.57764973610858    1.90258594330688    0.81964510792410
H          -0.16389040063255    1.57418766118632    1.36093336788939
N           2.38223533883217    0.83406828561535   -1.36735873885279
H           2.83176227951438    1.74100676081733   -1.29249282444366
H           2.71900299021649    0.34078369608380   -2.18756536341545
H           2.57968589463002    0.24730198114073   -0.50213446681302
