    26
        -50.44576814  Gyration_radius:  2.58167355245 Dipole_moment: 6.271
 S           0.95370940177787    2.54384656027604    1.04014429891003
O          -0.38464401962680    2.02420231277624    0.88182677630678
O           1.09742604737672    3.82776849930679    1.61073288503044
O           1.75978731667754    1.50985742258077    1.88169155357067
O           1.66067582419582    2.51986207086691   -0.33990654290484
H           1.42071209208950    1.71294633328398   -0.87290287633857
H           1.36630477040262    0.60346377866916    1.78595778490101
O           1.14043854572904    0.46585079938497   -1.84799459524998
H           1.76832640912889    0.49561113524187   -2.57136104187524
O          -1.79682006752973   -0.30514116971227    1.33774394384047
H          -1.82448999681217   -0.16379582368923    0.36959647081803
H          -1.76126208061919    0.59334027034905    1.68677407571843
O          -1.54560466087588    0.69404020126387   -1.19566471275925
H          -1.33855692734494    1.42097072446599   -0.58645581354260
H          -0.71487710647020    0.55701454691716   -1.67361015172800
O           0.69739081713880   -0.87675812211882    1.77953405254667
H           0.76830188318414   -1.24983553302677    2.65985450249019
H          -0.27985524686103   -0.70952598969506    1.61276283837156
O           1.19085945973752   -1.85664144999741   -0.75236499096500
H           1.22936638053908   -0.45104765631739   -1.42743441080297
H           1.20338281687071   -1.64607949379936    0.19349270731770
H           0.26650198661569   -2.15800031403261   -0.93718672271831
N          -1.44614623032430   -2.38363100111803   -1.13221546867504
H          -1.72954571105206   -3.10090841395258   -1.78745740481032
H          -1.80150473824633   -1.49452321609314   -1.46907634360889
H          -1.89987694570827   -2.57288647183527   -0.24648082384538
