    26
        -50.43516679  Gyration_radius:  2.77205696774 Dipole_moment: 3.749
 S           2.32603138032697   -1.93754901584705   -0.52745824202135
O           1.90899495264265   -1.99353339965558   -1.89757214335506
O           2.75852295138988   -0.68073035820218   -0.02551006454290
O           1.23784268998700   -2.55158167326872    0.37474381420334
O           3.47519819381468   -2.98588463812701   -0.33561612295347
H           3.24788379038619   -3.72117995332449   -0.89984244442444
H           0.41647425674344   -1.94655518349519    0.49410374854470
O          -0.83447319670435   -1.12996617877872    0.66960173641335
H          -1.34855725595367   -1.63079985339893    1.30609621471616
O           0.07223487737038   -0.00414169059023   -1.78600778397062
H           0.74472898208483   -0.61620186808670   -2.11918204361738
H          -0.33031473458102   -0.45805590103607   -1.03610577353512
O          -2.70533232221305    0.53601142869412   -0.94929355206389
H          -2.33631281762588   -0.16869480864242   -0.40420638490904
H          -2.05867811559130    0.68747325031664   -1.64649669806295
O           1.45038882286409    1.73616390434252   -0.14001728896878
H           2.17228543912859    1.10471925759214   -0.01678691353886
H           0.93651730336724    1.37196646529711   -0.88213968645520
O          -0.19626264556556    0.99467414642484    1.79656452279177
H          -0.54726720936472   -0.23134134576485    1.18228310296003
H           0.49798604624630    1.35844609931647    1.19108512984236
H          -0.97918405819307    1.59724966305782    1.66541114425888
N          -2.27804551016459    2.53597202398095    1.12828516858099
H          -2.63593953621646    1.98478225686032    0.34810722255114
H          -1.94594693225210    3.41682369300542    0.75643790748999
H          -3.04877536193661    2.73193368934374    1.75351541005170
