    26
        -50.45061321  Gyration_radius:  2.44927291724 Dipole_moment: 4.855
 S          -0.09249048225384    1.29723930423826   -1.60973740479530
O          -1.20380360628111    1.04899366312591   -0.70970355824721
O          -0.44738361655266    1.64731747610330   -2.93603340429239
O           0.79859772756812    2.39815970730601   -0.99088054622237
O           0.81992905067342    0.06126847631821   -1.58896383586341
H           0.39835893733225   -0.76353930120866   -1.04059886911454
H           1.01463839057728    2.05783199629049   -0.08348472269909
O          -0.15841563210862   -1.82063389035729   -0.31306426128664
H          -1.08041913539249   -1.83451379996470   -0.63926805565631
O          -2.75188446063218    0.29086325429504    1.41457493679016
H          -3.25615564475763   -0.36932737614025    0.93099994002720
H          -2.29477623191623    0.81211967873386    0.73682342257217
O          -2.56536083951735   -1.13287591827415   -1.34814807908971
H          -2.75045332618198   -1.17957187769926   -2.28697734450712
H          -2.17765396377630   -0.24713614614317   -1.18777727542901
O           1.46430369391708    1.33763906833909    1.29068342838055
H           1.99958126522714    1.91631230715328    1.83714541560307
H           2.06151361215636    0.58382512286811    0.97731956345235
O          -0.33330023940505   -0.70876764318151    2.03578412232931
H           0.20607128236333    0.08794871308799    1.93282818817861
H          -1.26276368667986   -0.39574432675333    2.00962243658514
H          -0.21001324001396   -1.48023017577376    0.62980521653666
N           2.87662592174948   -0.68456003450598    0.37574747549022
H           3.87942693622323   -0.79821394302192    0.45049972884360
H           2.63196922858827   -0.59528970554533   -0.60526707059977
H           2.43385804914785   -1.52911462926173    0.71807058302961
