    26
        -50.45127730  Gyration_radius:  2.48028614485 Dipole_moment: 5.944
 S           1.63613357065137    0.59788857709125    0.64243602772050
O           0.53149274427752    1.16762955585009   -0.09002492139221
O           1.79826143515034    1.09015551963022    1.97104535958322
O           1.45253114691129   -0.95424557452679    0.64917923557475
O           2.91789142758213    0.73167873661757   -0.16113687521033
H           2.74253033152895    0.20429701686310   -1.08319877837248
H           0.58437983225559   -1.20500796750727    1.09177103493853
O          -0.81925679688770   -1.58148307878982    1.66737641891368
H          -0.90832959215039   -2.52020309514084    1.84131667494992
O          -0.89525145474702    1.12452157270644    2.53357913949721
H           0.04647567742650    1.32582026367449    2.43172784772159
H          -0.95385059872696    0.16124882736082    2.54381352995471
O          -0.43460615992914    0.02467694844599   -2.19663020314179
H          -0.93710328926402    0.68007397960492   -2.68515949601797
H          -0.11391504469095    0.49609309511789   -1.38542075834309
O          -2.64927674185046    1.52442337533888    0.51464618618697
H          -1.89378996669570    1.52128165439066    1.14257782707377
H          -3.41298373220289    1.78245313299299    1.03340471168869
O          -2.26653256692681   -0.96862922674702   -0.36311855403047
H          -1.65156663962327   -0.82452468093935   -1.10254024602553
H          -1.42695271915791   -1.37658041468395    0.87953757415071
H          -2.53568677549798   -0.06093907870080   -0.09127072088899
N           2.37771687580654   -0.58532070770352   -2.25437805715894
H           1.37913572858997   -0.44667922668859   -2.42015296075842
H           2.53516728904779   -1.55621056379627   -2.01930627106606
H           2.89738600913207   -0.35241862042177   -3.09007374550096
