    26
        -50.45021938  Gyration_radius:  2.45456040679 Dipole_moment: 4.674
 S           0.10160698330905   -2.38178293158613    0.39881840920174
O          -0.90822579070321   -1.45132140968758   -0.07740907317633
O          -0.03701180782264   -3.71648400855901   -0.05185585807175
O           1.49188785331178   -1.79809112701480    0.01029120737828
O           0.15583553523875   -2.32301625263939    1.92501007638833
H           0.33295795402342   -1.34077074582996    2.14967266629861
H           1.45887647830352   -1.24846177358422   -0.82509747733872
O           1.48459996181051   -0.24759047080746   -2.04992182068421
H           1.80869801482636   -0.65268087132764   -2.85567100495869
O           0.45799437253294    0.16481985564298    2.28140597741247
H          -0.46713683279009    0.44147677536135    2.13398648918975
H           0.97740330679132    0.56304371571169    1.55417439446757
O           1.88673675283906    1.29959156147585    0.23110748125756
H           1.78409578422589    0.84460051214071   -0.62007226299170
H           2.80540485378245    1.19301881678920    0.48485662764325
O          -2.11138542242249    0.35415090666483    1.45267152037451
H          -2.81123968541761   -0.07086994075710    1.95064149045769
H          -1.76854003355737   -0.32062240319851    0.82712132911104
O          -1.00135962519576    0.23068853828937   -2.21945352368302
H          -1.23835899557174   -0.46334286655486   -1.58445636517602
H          -1.06811245490107    1.07684947939504   -1.70073495481996
H           0.49635780717227   -0.02736041339569   -2.20856206703514
N          -0.97359599095097    2.31119899828325   -0.52246401720371
H          -1.54243439933878    1.94277065484584    0.23270565245955
H          -1.29519783472159    3.24701856715097   -0.73170176391135
H          -0.01985680499797    2.37316683335975   -0.18506312268431
