    26
        -50.46067646  Gyration_radius:  2.43767412944 Dipole_moment: 5.088
 S          -0.77685375696268    0.96159517230892   -1.49663717062209
O          -1.10287719429809    2.11603255200241   -0.68506694685123
O           0.59640888685826    0.95945024195409   -1.96336064568206
O          -1.14028845956729   -0.29189057764563   -0.85557949172330
O          -1.69890346956357    1.04613196338853   -2.78756512857012
H          -1.51288270088583    1.91918970436612   -3.11703131107445
H          -1.16953247099913    0.38489561842592    0.70755819261084
O          -1.17359214626787    0.57855198115017    1.66698408792448
H          -1.45263830789155    1.49586988374307    1.72204881799098
O           1.37687980825802    2.80217235438916    0.00538275865628
H           0.42112561552133    2.71343464016210   -0.17515343438566
H           1.79429324337722    2.45076580565001   -0.78722911714976
O          -1.91903194900054   -2.06042123505114    0.97301508839817
H          -1.98794701389099   -1.53143474192470    0.15903967978824
H          -1.85616534322727   -1.39751086854672    1.67376512552371
O           1.85180752436318   -0.76050449555312   -0.42707182810061
H           1.40062602168825   -0.18510151704378   -1.08848896113827
H           1.07704896085110   -1.87244647929106   -0.08680563200501
O           1.57366447345199    0.71906413229677    1.69403972322419
H           1.64470510435791    1.58926825374450    1.24546029337128
H           0.62536437390161    0.61897573385565    1.89284038635498
H           1.87139130977613   -0.21778306048027    0.41536469850674
N           0.52351619167223   -2.81022240503198    0.25423141039810
H           1.04992394173564   -3.25583846177056    0.99892756081072
H           0.42873964158415   -3.44002912635351   -0.53558852969300
H          -0.44478227492825   -2.53221506865939    0.59692039362335
