    26
        -50.46067677  Gyration_radius:  2.43719314707 Dipole_moment: 5.097
 S           1.47034902879180    0.61412149991437   -1.10340243557912
O           0.91595614099903    0.02954156721326   -2.30688088769133
O           0.91155520938866    1.91522300838513   -0.78915057100340
O           1.42100517199246   -0.29295717914830    0.03197122814691
O           3.01797203821041    0.83698299384445   -1.38457948641180
H           3.01062845873245    1.34415088133883   -2.18975570885723
H           0.18777910495034   -1.25478517391697   -0.64572553777853
O          -0.54608718909275   -1.87215450848927   -0.84103442901740
H          -0.53921326533077   -1.95284307229326   -1.79800044759578
O          -1.32904046796180    1.45929910345954   -2.41856038886041
H          -0.55280745404871    0.88060129862576   -2.54707897868477
H          -0.96763526583365    2.23488902676785   -1.97840198635909
O          -0.79449991384170    1.48792674644895    1.15998750837037
H          -0.09544786273661    1.70858409474108    0.50050541307199
H          -0.36339271591468    0.51788856806592    2.06698324583458
O           0.84310525035666   -2.38721670464634    1.56895148644494
H           1.41201355702656   -1.80065356608017    1.04047083044029
H           0.18365131779291   -2.70055103772057    0.93543790086236
O          -2.39469638085460    0.10568205159935   -0.35410981202442
H          -1.90251090514274   -0.72652293907950   -0.47252341364830
H          -1.50883360018339    1.02281113270454    0.63242037896842
H          -2.24010856273360    0.60781292334710   -1.18326756287556
N          -0.10069713416398   -0.26505361839498    2.85526324320727
H          -0.92061698458258   -0.45842623008666    3.42141196786849
H           0.65072774037072    0.09431392944172    3.43467094452866
H           0.23084468383142   -1.14866482602923    2.36439748863911
