    26
        -50.45021957  Gyration_radius:  2.45424429208 Dipole_moment: 4.668
 S           2.22897332099292   -0.43091356614812   -0.82650376717826
O           1.66141262317224    0.32714256714743    0.27600578009641
O           3.54993667252545   -0.89974643692756   -0.62889997843768
O           1.25480749713522   -1.60610603668001   -1.13348896264500
O           2.12839939743949    0.39738261624056   -2.10693218361540
H           1.13440666719427    0.61847527118415   -2.20535628235860
H           0.76036320635972   -1.91883774445126   -0.32178734834016
O          -0.17442950070821   -2.38668506309437    0.86533255180934
H           0.13037638046851   -3.19239556457925    1.28518239368877
O          -0.34089397906691    0.95481204602665   -2.10106498990581
H          -0.32062407457254    1.67201198379416   -1.43813829188276
H          -0.86319745530602    0.23158201349877   -1.69931894849454
O          -1.81676827413338   -1.05105256434028   -0.94636282158505
H          -1.33521512045017   -1.55734430934071   -0.27277789759385
H          -2.00162462087730   -1.66205360651814   -1.66209410440022
O           0.27590553286281    2.57204640333137   -0.02107042937738
H           0.82732228670799    1.78761557505475    0.19093955508509
H           0.88323257316222    3.30305019161116   -0.14453294281125
O           0.12842691615246   -0.39657321356351    2.40962705798504
H          -0.08103574209150   -1.63943509678986    1.56049593700059
H           0.84916318418883   -0.01998072765035    1.88063863231060
H          -0.66729869930471    0.15159338872288    2.17326542457992
N          -1.89404138000339    1.03693444239645    1.37850685747894
H          -2.25158702352035    0.48576999902357    0.60672435326079
H          -1.38389753960618    1.82075229649243    0.98483520212683
H          -2.68211286873562    1.40195512555542    1.89677520323328
