    26
        -50.44283670  Gyration_radius:  2.54455279877 Dipole_moment: 6.569
 S          -1.86322266435489   -1.51675949417202   -0.44977849931958
O          -1.02768944319094   -1.36127116111214    0.70603770707570
O          -3.10841987658305   -2.17127210800433   -0.29831099840621
O          -2.06876965187146   -0.08232436824534   -1.07492860298861
O          -1.05052717669347   -2.19035620728340   -1.58051008422834
H          -0.12526632734992   -1.81941120425753   -1.56132786763722
H          -2.34179910623514    0.54312758568374   -0.33642923530865
O           0.08203069470725    2.26808766011045    0.93341083022749
H           0.43192033138437    3.00469431551219    1.43577194807853
O           1.31284589903398   -1.09294589685376   -1.71907567757166
H           1.59614418478847   -1.23560747072041   -2.62474198858730
H           1.02860556301524   -0.13657507629408   -1.66380568503356
O          -2.51739717625346    1.70747152834483    0.70468800248507
H          -2.95058396325111    2.47219724838890    0.31959218091399
H          -1.57930553687264    1.96224113254566    0.87700905336508
O           0.27851265602815    1.29671802009554   -1.61712527778560
H          -0.62713252084987    0.95483538738735   -1.66127345122226
H           0.34686280289303    1.72704715374197   -0.74523105620687
O           0.68774194950031    0.12288155444899    2.17435096797597
H           0.35034618407118    1.42932267353644    1.44610221573188
H          -0.01260234795789   -0.46186170387800    1.83827413252156
H           1.51773746963761   -0.26496942190879    1.81031475920370
N           2.76499600675692   -1.12223626802236    0.93088657370921
H           2.32003605113423   -1.24711965453906    0.02634780614658
H           2.86199012967271   -2.03723945129498    1.35236158420383
H           3.69294586884043   -0.74867477321847    0.77739069267886
