    26
        -50.47230148  Gyration_radius:  2.43562464578 Dipole_moment: 1.586
 S           1.65557708388245   -1.19223729414242    0.53954305095375
O           2.32077342537047   -1.42444711993317   -0.72104747201756
O           1.90895079657447    0.12234874414788    1.10693834061848
O           0.22657459361805   -1.47105090127331    0.50002606611201
O           2.28018316524655   -2.25129426527648    1.54757625231140
H           3.04210082213593   -2.54041143923680    1.05727777280717
H          -0.35955651081345   -0.36432420874113    1.58010596226916
O          -0.70610043843554    0.33659774222599    2.17459355608910
H           0.08009617611370    0.67546144332625    2.60985033538020
O          -2.39379368284818   -1.79701711325879    0.33487212551452
H          -2.62111514040044   -1.38865763114617    1.17501695108712
H          -1.43597730055847   -1.96987202374041    0.39135781013218
O           0.68420764124819    0.02991896541271   -2.20298656363869
H           0.96716488658831    0.88335923884538   -1.83310043997400
H           1.27109416216735   -0.62738875587316   -1.77546289650278
O           1.34203365123406    2.08018846781851   -0.48858177161253
H           1.58271068341468    1.35413691691222    0.14583351974769
H           2.08385067908801    2.68667817499698   -0.49012655227468
O          -1.30323636917020    2.11380910907496    0.26287254656822
H          -0.39529044264173    2.32479044017221   -0.01551934549573
H          -1.73612674237286    1.02436085902005   -0.77746521213925
H          -1.19426930464798    1.55715405333005    1.06805699511068
N          -1.83065687861331    0.16744246398998   -1.41237041912616
H          -2.47254822681544    0.33666442122404   -2.17833034591448
H          -2.14608291057480   -0.64034317653029   -0.82031857540738
H          -0.85056381878582   -0.02586707134639   -1.77861170059392
