    26
        -50.44264254  Gyration_radius:  2.63068849573 Dipole_moment: 8.076
 S           0.88139121985662    1.61236597198083    2.17038880061405
O          -0.32791199024866    1.91833733308502    1.44438118222406
O           1.01731500237711    2.15696099567998    3.47258547496092
O           0.95561509204899    0.02841827803111    2.25064017672702
O           2.09567173144029    1.93138833849793    1.30815111424658
H           1.86374851172590    1.50198588124009    0.34554243092130
H           0.07645351718687   -0.35549649155277    2.02193121398237
O          -1.25788756425200   -1.20945694841288    1.47212610907432
H          -1.84332643112155   -1.40701345320697    2.20439631214181
O          -1.07096283157750    0.60520954326596   -2.34750543163918
H          -0.76277183385906   -0.31941292747631   -2.45754526206671
H          -1.56614340409156    0.82951137569741   -3.13613194784508
O          -0.18874396608605   -1.95215450463960   -2.46235638142467
H          -0.83449430367200   -2.66038618356683   -2.43803341879259
H           0.34971308920991   -2.04834049502429   -1.66059129526972
O           0.96179130554553   -1.95175322188330    0.04787242471245
H           1.64358479889023   -1.89671744407494    0.72193554680106
H           0.12266791989145   -1.83158130001206    0.52519789005049
O          -2.28970502746887    0.71629536074575    0.12259889505431
H          -1.73237261347498    1.35463799997939    0.60796299083374
H          -1.93814609003051    0.71724374195150   -0.78574197692100
H          -1.72755387133905   -0.50673158138239    0.91625341402797
N           1.47161151156005    0.82468236712933   -0.87016689968242
H           0.58422634517643    1.18234300378801   -1.20981832086946
H           1.35384243917241   -0.16550188988123   -0.66203810385731
H           2.16238745405362    0.92516621806472   -1.60203496917813
