    26
        -50.44264259  Gyration_radius:  2.63081625718 Dipole_moment: 8.070
 S           2.06278528822341   -1.95570691811272   -0.09915864202525
O           1.92752355691370   -1.05784737609673    1.02271328048121
O           2.78953765971373   -3.15557870983887    0.10798855765021
O           0.58484429230353   -2.30697411092130   -0.56050416795553
O           2.58715163125092   -1.19388251130416   -1.30949334156668
H           1.98857494431252   -0.29729113549448   -1.34531404405215
H          -0.05260074515127   -2.04764579316376    0.14601686606450
O          -1.30399651039559   -1.50194307206909    1.11910564492444
H          -1.55621733274013   -2.18619214173145    1.74055804012763
O          -2.23563740632059    2.10533891631344   -0.69015231847870
H          -2.07373985835989    1.24403026989726   -1.10740738811083
H          -3.08262451783678    2.03289528799604   -0.24651385894724
O          -1.58966345308042   -0.48134412418487   -1.40721398458703
H          -1.26483137189646   -1.20934418617335   -1.94258011870685
H          -1.64212057518935   -0.83483187744068   -0.50237830906387
O          -0.02464027558004    2.52160072882221    0.81644398103012
H          -0.83599562723077    2.43971976730127    0.27130320985309
H          -0.05002564725422    3.38746402227914    1.22516837882330
O           0.07019805439453    0.25831880476694    2.38648906256789
H           0.89507585775349   -0.17324161497526    2.09154937581129
H           0.04890363484479    1.10842904909386    1.91140204319217
H          -0.83625790338997   -0.78679686236232    1.66077861320431
N           1.07519286047125    0.82477554587100   -1.33015374333090
H           0.12721410035326    0.46769006008401   -1.43701404952167
H           1.26396391050225    1.48000001023179   -2.07714494497364
H           1.12738542275935    1.31835795192403   -0.44448814272644
