    26
        -50.46906647  Gyration_radius:  2.46832594275 Dipole_moment: 4.277
 S          -0.86920779287378   -1.27826974304136   -1.52281649434357
O          -1.84836345849531   -0.51262055101593   -0.78724039899774
O           0.38752214526625   -0.53749661090750   -1.66608102199827
O          -0.66562783428220   -2.62547889089395   -1.04357548436236
O          -1.44103634225257   -1.43211507519802   -2.99826497409584
H          -1.05898284597051   -2.26463141937959   -3.25543174788507
H          -0.36792685121418   -2.23246520342136    0.50225456496176
O          -0.12459343121413   -1.96569946057486    1.41827968272518
H          -0.49081015657959   -2.63527415682553    1.99907656803085
O           2.25294003334847   -1.06953820002982    0.26279030090168
H           1.66815639511076   -1.54110130791583    0.87249984269450
H           1.72446521867604   -0.96733384687317   -0.54692002735599
O           2.07316677984458    1.39312013332432    1.24278916403664
H           2.36829160909628    0.49740462563563    0.94925821235852
H           1.30426769116026    1.80982892679783    0.05502968323663
O          -1.87585571839715    1.83572394255463    0.28657639921082
H          -1.91746265848651    0.93122219779353   -0.11851569299917
H          -2.78057088972640    2.14603314198001    0.33885593753843
O          -0.25612996575144    0.66981092840039    2.30557092965765
H           1.32110737462281    1.21022116195861    1.85372550193204
H          -0.91413449415382    1.11330223090525    1.75212874055731
H          -0.26905746452737   -0.26501379980641    2.04020515901873
N           0.61544043837724    1.93557913041239   -0.79886255400962
H           0.51901967281260    0.97748449228259   -1.23547956964257
H           0.95887466865769    2.60986760171844   -1.47252029360610
H          -0.31349213304283    2.19743974212178   -0.43333242755497
