    26
        -50.46788072  Gyration_radius:  2.39849241293 Dipole_moment: 5.651
 S           1.48005374958843   -1.02565538175348   -0.13166357013367
O           1.23267805184292    0.39443657764799    0.09245574722583
O           2.57743812744264   -1.52059243049100    0.65467031327418
O           0.23065275138457   -1.78226468314812    0.11859368060974
O           1.81196412635377   -1.21196662734877   -1.64443379252089
H           1.10389097031792   -0.74298256911488   -2.14739831750176
H          -0.29768798643784   -1.08455665909236    1.35432532129746
O          -0.06288877019460    0.17084896677535   -2.94237716514692
H           0.29925368805423    0.44749221137350   -3.78574385237623
O           2.02235681672926    0.09189141299248    2.68153291842557
H           2.24643436043050    0.92195904781849    2.25054740702098
H           2.35306096501452   -0.59309160660660    2.05449893722076
O          -1.91048998102277   -0.87204348379626   -1.13158995979208
H          -1.16704493973011   -1.35107356712182   -0.70336983741239
H          -1.55218298833918   -0.58895546105347   -1.98255819491183
O          -2.15493328911701    1.12043407831885    0.53903162360556
H          -2.11163125566129    0.37462835777593   -0.12788274484757
H          -3.08575238512529    1.29910080833281    0.67856173492601
O          -0.16931917016524    2.14402533834321   -1.24140877187660
H          -0.97404578220625    2.11130698887921   -0.70740044073110
H           0.47982913574036    1.63235809123867   -0.70954571636984
H          -0.12645033697403    0.99493375354349   -2.37613395187225
N          -0.52912850765246   -0.39274054136940    2.14457447126034
H           0.43031414681410   -0.06428651029200    2.46344976148758
H          -1.04097125359115   -0.83951394051298    2.89838397927529
H          -1.08540022348297    0.36630782863372    1.70088041984882
