    26
        -50.44264268  Gyration_radius:  2.63078810831 Dipole_moment: 8.064
 S           2.38395804294693   -1.46926187399850    0.49647206390083
O           2.11718792294125   -0.21690573677778    1.16227194017228
O           3.32459958381817   -2.34244854265386    1.09922876390311
O           0.98368213263003   -2.20695364064161    0.37198876252400
O           2.72532734538331   -1.21388747463457   -0.96595911544246
H           1.97160940498156   -0.52033068836119   -1.30291263528501
H           0.32912121915656   -1.77847110165450    0.97271925801350
O          -0.97339496996779   -1.07719073813445    1.76059320013717
H          -1.07797806830039   -1.46806446255893    2.62909734451661
O          -2.60413423308663    1.24459541949948   -1.25557959166217
H          -2.29768859826291    0.32467918677048   -1.30007141806247
H          -3.41023427319860    1.23362805176406   -0.73647779214104
O          -1.51156370695945   -1.26844157647680   -0.91931154067536
H          -1.47301976198499   -1.21320924441614    0.05118830053330
H          -1.07205497959914   -2.09278754478433   -1.14149089451966
O          -0.46706098663649    2.59360748250117   -0.28386213573439
H          -1.26395187068939    2.16478561809161   -0.66223962018253
H          -0.64080839315852    3.53531201790704   -0.26328812243248
O           0.08804433457691    1.24246147816901    2.05355438792500
H          -0.63033802937348   -0.13766083840859    1.91303722560381
H           0.96973308647042    0.86136594636868    1.87737095693654
H          -0.10294817571314    1.80050483017324    1.27840671191109
N           0.86788422793919    0.34815908528814   -1.65330581342066
H          -0.00100537881139   -0.16348308552418   -1.50889579684107
H           0.91229065382421    0.65145264779193   -2.61713282017158
H           0.85274346996351    1.16854478381422   -1.05540158945568
