    26
        -50.46906604  Gyration_radius:  2.4695789581 Dipole_moment: 4.259
 S           1.39243758864211    1.65951916826773    0.17555201589083
O           0.12348599895659    1.90931904341463    0.81852760635486
O           1.76039023795002    0.24298927247425    0.25793337527104
O           1.50824065733675    2.18373135731603   -1.16535109275377
O           2.48615359474680    2.43289870319129    1.03132944802472
H           3.13051503173351    2.63378197395483    0.36088372492483
H           0.17373252926925    1.48574130884458   -1.76698726732356
O          -0.60221204520541    0.99845769605499   -2.12794728564746
H          -1.01326495677308    1.58390631770891   -2.76671587025052
O           1.02708673593392   -1.25758042431621   -1.90854839961650
H           1.47606605638731   -0.76511833063179   -1.20054585597420
H           0.43261234932973   -0.60913630590668   -2.31140351038274
O          -0.70937231146206   -2.65846918966350   -0.46606096696848
H          -0.14075917531197   -2.08906457228118    0.77046873867105
H          -0.04032012743021   -2.34505113185986   -1.12147591813732
O          -1.60952822425273    0.43832612873719    2.04433092863614
H          -2.11551581485823    0.98548157454338    2.64613424686677
H          -0.97173877809673    1.04616896002239    1.58865637210989
O          -2.29926781504183   -0.52620588479147   -0.53321417797682
H          -1.76410999160595    0.05448434116051   -1.09963639632176
H          -1.46831027254474   -2.03982386025238   -0.58272346057498
H          -2.23686690237578   -0.15871910774735    0.35959560667198
N           0.27206011524649   -1.47123471628949    1.58713756618887
H           0.93126506401779   -0.78533457712591    1.12574738452041
H           0.75416337387597   -2.02779795057805    2.28301072155522
H          -0.49694290845957   -0.92126979425378    2.00130245624669
