    26
        -50.45524964  Gyration_radius:  2.46716736731 Dipole_moment: 4.697
 S           0.68764872755584    1.39616083037471   -1.18730828126800
O          -0.23830399151178    2.14805167712634   -1.98636870715911
O           0.48966344286408    1.54983192788784    0.24638804007762
O           0.81175093140849   -0.01090950459687   -1.55588489557032
O           2.13735860432030    1.99741109221902   -1.49246362579449
H           1.93776065677338    2.90921725009144   -1.67769771829407
H          -0.43830122240299   -0.98979335916950   -1.29004835678987
O          -1.23031826640702   -1.53958292560583   -1.07184645884313
H          -1.31635415944644   -2.18739196262009   -1.77244349101729
O          -2.35050700507547    1.02696334363168   -0.72388640091177
H          -2.17876341856836    0.10596790883747   -0.96469567133158
H          -1.67144060324399    1.55639848596806   -1.17360661819502
O          -2.49110583197751    0.63050844756586    1.91316731197976
H          -3.43340360262294    0.65641542625231    2.08395530986334
H          -2.37583894278900    0.94078720933421    0.98571514046356
O           1.13045869866623   -0.27565298106600    1.82864989080619
H           0.85950206260240    0.55142773407112    1.27739060083693
H           1.83843783524754   -0.74033766614527    1.20584334788042
O          -1.01735801020075   -1.53995900353370    1.65592142844663
H           0.24913812627206   -0.86758708342515    1.82868648779749
H          -1.62848148535964   -0.79469842064550    1.88279797147344
H          -1.13570526540205   -1.67548742625726    0.69757854881121
N           2.72464161876150   -1.17707330373081    0.06141039637563
H           3.62477576957529   -0.71641417037332    0.03309483052326
H           2.14982871041560   -0.78988574687550   -0.69557132323695
H           2.86491661056209   -2.16436777935042   -0.10877774692230
