    26
        -50.45168065  Gyration_radius:  2.42511692286 Dipole_moment: 7.525
 S          -2.27441574051104   -0.32442000948460    0.12593385964239
O          -1.69964851230329    0.72262466160109   -0.70405970732794
O          -3.34057767078121   -1.07004600596792   -0.45198455197813
O          -1.04168687752313   -1.35584585987816    0.37711214472311
O          -2.49479147030604    0.18273404181306    1.48969074048138
H          -1.35135339831463    0.98358950659868    1.55223245068354
H          -0.60519128514682   -1.53993236712727   -0.49182691319899
O           0.32903292362847   -1.72913793251218   -1.83292756143954
H          -0.07334998474122   -2.35112405254454   -2.44070827926275
O           1.46601659235568    1.73858905224014   -0.54586113968884
H           1.83611338656805    0.83004456511028   -0.39871655714417
H           2.21775118324222    2.32509824508260   -0.63357953527443
O           2.29158768370541   -0.73019119521436   -0.09371400999927
H           1.76673296318042   -1.25324264827056   -0.71762501741828
H           1.94866044294482   -0.93345429561260    0.78800445362015
O           0.76257940986701   -0.93906976269216    2.26410806945313
H           0.64319947057673   -1.48276388814856    3.04393392029396
H           0.04170355554813   -1.18779645918818    1.63838000389251
O          -0.02118164300796    0.68184954803813   -2.69020261202892
H           0.23752115460538   -0.81891906236449   -2.25920911015572
H          -0.82235377371345    0.76495210799489   -2.12692425990693
H           0.63060352201100    1.21439707178624   -2.21129690839652
N          -0.34050449976691    1.48093685561990    1.58319958602769
H           0.29107600617751    0.79572624101088    2.02815381301475
H          -0.37139519887025    2.35528704335870    2.09668406846717
H          -0.02612823943446    1.64011457873850    0.61120303297143
