    26
        -50.45283501  Gyration_radius:  2.46197021828 Dipole_moment: 8.021
 S           1.10878280086683   -0.40767960367441   -2.11757071790354
O           1.32282323362732    0.73213416918292   -1.17989032886956
O           1.73031582184051   -0.24159713871605   -3.38267985342219
O           1.42025958397521   -1.65645027964276   -1.41815955852112
O          -0.46548446209856   -0.43659147138595   -2.33691722155345
H          -0.90144384330459    0.13432428756103   -1.67302195194388
H           1.74379058710406   -1.47540972641049    0.44890714815185
O          -1.82576031704956    1.07811922872295   -0.57428697911174
H          -2.51175037906780    1.52829735359485   -1.06864187362247
O          -1.21134844348890   -0.80698929466109    1.30759179644588
H          -1.59310176441140   -0.14515088240720    0.70566452173485
H          -1.20383244687940   -1.63391120259747    0.76700097448083
O          -0.82119441005860   -2.68062870733017   -0.51648400284605
H           0.04264034281039   -2.39119629677572   -0.89754870329583
H          -1.43174821562325   -2.65767289646515   -1.25570623218800
O           0.11446738640660    1.29655978659839    2.67793800417242
H          -0.25844364782317    1.81790566139975    3.39021269056614
H          -0.53024770551787    0.60499865640736    2.46890897836713
O           0.07624547756166    2.65188066984310    0.21559429627402
H          -1.16487285384634    1.77705850598980   -0.29012518772219
H           0.25654846829165    2.31249851210322    1.10829131644356
H           0.70106309692617    2.19732058285773   -0.37801444614827
N           1.44970499000912   -0.62113798678839    0.94014972096651
H           0.44580424606806   -0.71751089992342    1.23751519283220
H           1.45924582264093    0.09542084995197    0.10654679512166
H           2.04753662103827   -0.35459188743797    1.71472562158648
