    26
        -50.44631021  Gyration_radius:  2.51533413236 Dipole_moment: 2.571
 S          -0.77526559550260    1.57656158026092   -1.30590520727810
O           0.55594837083569    1.09800956469328   -1.02811203007330
O          -1.00475424465698    2.16716198684283   -2.56927284997264
O          -1.75383759113078    0.38301569022878   -1.08795638982834
O          -1.20229791463572    2.56579483541857   -0.19395470382288
H          -1.05140780864773    2.13160278144923    0.68709264093257
H          -1.27142776340130   -0.43050793526145   -0.74247666628873
O          -0.79265030891896   -1.79053579917277   -0.12441337512253
H          -0.90542996725360   -2.51238748501242   -0.74443513006789
O           1.67217548749345    0.65455882879232    1.41624435588453
H           1.44171006870428    0.92103135759615    0.51032319656159
H           0.88942219749759    0.85955639549788    1.94089342144815
O          -2.60347530694022   -0.63676308393208    1.54787877875386
H          -1.98023242900822   -1.26455499058007    1.13997036677869
H          -3.14139911638261   -0.30473555460158    0.82338711873631
O          -0.98794117988498    1.35552456499109    2.10533693947042
H          -1.59843092455978    0.57729957704956    1.99060327539602
H          -1.34754780648740    1.88607742119420    2.81894195541457
O           1.66144290091018   -1.86531766944612    0.48475925331424
H           1.79249222172244   -1.03909821772473    0.99790446058406
H           0.20026065852223   -1.82248546854399    0.16009968904836
H           2.07689396537652   -1.67560281349005   -0.38842272298833
N           2.49266337174842   -0.90459599006887   -1.91624922085072
H           1.87075936796956   -0.11002387709283   -1.77855738151997
H           2.32167430990535   -1.27065877278013   -2.84452552163993
H           3.44065504676140   -0.54892691631772   -1.89915427285626
