    26
        -50.44665495  Gyration_radius:  2.47595824421 Dipole_moment: 5.166
 S          -0.25509576422383   -0.18267445475656   -1.99719082989315
O           0.68445310159845    0.41945152586535   -1.08765667025376
O           0.22819896506045   -1.27479158399000   -2.76351343738280
O          -1.51121636772353   -0.60732446466502   -1.17255265107412
O          -0.84463117869047    0.89544494677763   -2.92400403924135
H          -1.23055855683681    1.56538882088533   -2.29777298868219
H          -1.29676818185176   -0.73828450738017   -0.19872486413739
O          -1.11329855372783   -0.90884993925228    1.34829674258550
H          -1.59131495236637   -1.67750193204241    1.66309494469171
O          -1.14056647921379    1.80239901028842    1.52463556125890
H          -1.16242309780630    0.82612248708786    1.52901559771760
H          -1.60816325124603    2.10006095576274    2.30674545166658
O           1.67744369385609    1.34712017688029    1.27704090953146
H           0.85694654497823    1.78922373680481    1.52805765278668
H           1.54313529561367    1.11390984504903    0.34608677018271
O          -1.98095340013168    2.27575814562299   -1.04454867891638
H          -1.53200938970117    2.21679653249474   -0.17870048405127
H          -2.78274275866860    1.75243403284083   -0.96661990733005
O           1.31848559817468   -1.24230210168597    1.89268077611372
H          -0.11036175731079   -1.07559998134902    1.58391594222402
H           1.68420725012326   -1.67904789589252    1.08392703687932
H           1.61949441638147   -0.30776095894180    1.82865830766972
N           2.09240033177621   -2.10936356114502   -0.53881070737335
H           1.60603308927049   -2.85275522785644   -1.02555682006280
H           3.07774535576357   -2.20496384010595   -0.75422183117956
H           1.77156003687073   -1.24288976751347   -0.96228179378162
