    26
        -50.45390796  Gyration_radius:  2.50147083315 Dipole_moment: 2.122
 S           0.84282133334136    0.78767414022417   -1.34159729525309
O           1.13426755173743    0.54010232571422    0.04375396613346
O           0.16815180894071    2.02496327299570   -1.60330789859843
O           2.11528649459107    0.69368204768098   -2.17969255904733
O          -0.00408109740709   -0.38931874264089   -1.88209947877690
H          -0.91517948208442   -0.44380283332080   -1.32407847793634
H           2.63928481205593   -0.09088924364901   -1.80410636597869
O          -1.97984982382863   -0.48922286373456   -0.39381755486305
H          -2.14105764407886    0.45307575211453   -0.17926229342396
O          -1.90126112369707    2.17621223730151    0.03572040617645
H          -2.53400089046656    2.76429568066690   -0.38222857148150
H          -1.08662761140857    2.22859659384258   -0.51156192030435
O           1.03111639581441   -2.61391017588529   -0.52331078460598
H           0.50988720912873   -2.08559797733052   -1.14369702582884
H           0.66205327565883   -2.43247675021270    0.35078059023175
O           3.25766790550616   -1.38294144053065   -1.24382866696937
H           2.50511113436490   -1.89341897230587   -0.84933801930360
H           3.61968379029259   -1.93217977191218   -1.94342938315033
O          -0.32003086578583   -1.11046687936019    1.52913809724999
H          -0.71218559845222   -0.53418856199527    2.22173635477791
H          -1.49513480523422   -0.86081875429509    0.39618077787645
H           0.34556871120733   -0.53042982645992    1.10777980038597
N          -1.36862212397471    1.01826118834419    2.85039910435124
H          -0.62470422885186    1.49290241482128    3.34677239113029
H          -2.20218627874528    1.06434205888310    3.42305130025566
H          -1.54597885857446    1.54555508105900    2.00004349692153
