    26
        -50.43636256  Gyration_radius:  2.5875261074 Dipole_moment: 5.270
 S          -1.11566927398893   -1.49834201526859    2.11314639997170
O          -1.03790834804932   -2.08708662231744    0.80667866199851
O          -1.37301483203129   -2.32913517974405    3.22640598235098
O           0.22668870211219   -0.71048276193093    2.34733749535951
O          -2.15517492970547   -0.34378002931025    2.09327409035212
H          -2.01259328835824    0.18750810543491    1.26794478556952
H           0.80092712565346   -0.74594973506447    1.53565271713648
O           1.85062624544514   -0.53638790636001    0.29541295473879
H           2.66030636656258   -0.99947158427832    0.51563254158326
O          -1.64827593476135    1.28241638372869    0.10932861202945
H          -2.22562394517228    2.04078215675647    0.21929908576390
H          -0.74481539664592    1.57067296563946    0.38527867178463
O           0.76622092770144    1.87153459425126    1.08790242736470
H           1.27130617479264    1.09385153286702    0.79064912788852
H           0.65688030980904    1.75607434988728    2.03533162342552
O           1.66791109259994    1.71122862731797   -1.74742735991531
H           1.46391072072399    2.32621939258716   -1.03815722560816
H           1.98541944329357    0.90626346348181   -1.32403833565428
O           0.58517753304871   -1.96887554107878   -1.33142686114593
H          -0.08586030723754   -2.26867998331298   -0.69506775612178
H           0.11506041092342   -1.29443677495618   -1.90145703605551
H           1.36660713245157   -1.12892307290733   -0.41567691856134
N          -0.65071050339182    0.05054866499005   -2.53336192465195
H           0.07540432925141    0.75907663110097   -2.60275151256253
H          -1.30621380400177    0.35310890630719   -1.82149153549725
H          -1.13658595102305    0.00226542216589   -3.41841872166441
