    26
        -50.43636254  Gyration_radius:  2.58756084249 Dipole_moment: 5.268
 S          -0.97015636275360   -2.39621477667727   -1.12785106516725
O          -0.01003359281511   -1.62043204132578   -1.85989209936780
O          -1.22250132661820   -3.72843494526417   -1.52452902060616
O          -0.52875856921794   -2.37472322993489    0.38284318843494
O          -2.31636546992824   -1.62264176910607   -1.07006086582243
H          -2.11937622995594   -0.67240118974628   -0.86532050460191
H           0.27093821119377   -1.79617870409885    0.50693890087331
O           1.47731172498012   -0.79810375166957    0.99006921182127
H           2.20305903324349   -1.34307869561009    1.29799200256533
O          -0.93179752738279   -0.04302049878129    2.09880378089230
H          -1.37984344551073   -0.88253933827717    2.23079961049662
H          -0.02383583609296   -0.27489015927774    1.83399521585976
O           1.08801206331724    2.12054759985914    1.75552608761300
H           1.54772907290919    1.29681857112408    1.56019304269909
H           0.29494281113536    1.87809164565227    2.24045332727649
O          -1.90951366751359    0.82078107360064   -0.23197553304490
H          -1.53835264018089    0.60871227053968    0.65836834754342
H          -2.77420408373473    1.20967336060573   -0.08510380552034
O           2.06398147539295   -0.00045984486772   -1.31644054199060
H           1.76544873417052   -0.44199260130476    0.05135102028007
H           1.45187308730132   -0.59397143253577   -1.78337472594230
H           1.62943388339728    0.89971745556271   -1.35654168732967
N           0.65697175335879    2.24647015351287   -1.16857726492798
H           0.73565388395708    3.03431558786662   -1.79697512399431
H           0.83598268873046    2.57069082233114   -0.22151681332290
H          -0.29659967137822    1.90326446771985   -1.19917468475077
