    26
        -50.45667198  Gyration_radius:  2.55988248531 Dipole_moment: 5.745
 S           2.51447258131840   -0.87944018940182    0.36921322608951
O           1.39927260691135   -0.70002532535274    1.30089584780231
O           3.60781864511689   -1.64298721795496    0.86996700242089
O           1.88375525785141   -1.76713685222397   -0.83736799358782
O           2.84439072375063    0.39093059297925   -0.27088638359959
H           1.55620530036147    0.97417780310572   -0.69054811762999
H           2.29577006661843   -2.60496308308508   -0.65512527638213
O          -1.00018870283278   -1.77837114400636    0.73176309865713
H          -0.11425449871764   -1.52815386060751    1.05590241049204
O          -2.52909316403404    1.11959483793880   -1.34504619590942
H          -3.44056393505492    1.04421843876526   -1.63070096459899
H          -2.07568183898835    0.32075164996494   -1.65329040090538
O          -0.68897768140221   -0.93662487893929   -1.67392966357864
H          -0.89048680717528   -1.34610385054465   -0.76895547666016
H           0.08321010740328   -1.42416569043828   -1.97610989762802
O           0.17032651509528    1.52992936205726    1.81882325170751
H           0.64942364699674    0.66484143385370    1.73454389237716
H           0.64232503009826    2.03269045377891    2.48316684413831
O          -2.36807008295199    0.45816809664592    1.37590840129439
H          -1.60953971417929    0.93974543142554    1.73472115987700
H          -2.50894165279725    0.81123425434119    0.48211184410983
H          -1.61434223314990   -1.10979373208212    1.10587900514917
N           0.53717198070165    1.30267858753828   -0.86679051651122
H           0.17666037343920    1.60383312918527    0.05591993317650
H          -0.00798108873472    0.46401644604470   -1.21111178712795
H           0.48731859436223    2.06095530696700   -1.53895324315679
