    26
        -50.46191421  Gyration_radius:  2.4933335028 Dipole_moment: 8.566
 S           0.01090715914030    0.46113530855170    2.47759191172046
O          -0.43192341915303    1.42477485285197    1.47622618084300
O          -0.51078889253612    0.65513762304430    3.78793693314058
O          -0.07813853532717   -0.90379746238800    1.94578734499363
O           1.60942188707847    0.68475607396696    2.58051627969242
H           1.66942325133008    1.24712446790182    3.34492319711486
H           1.00037865030519   -0.87403400624280    0.87480662793348
O           0.02101512604602   -1.75886662218440   -1.88251187082518
H          -0.10449665084026   -2.55349743475828   -2.40162838182627
O          -0.40159177140237    0.86998290891832   -2.50369410129109
H          -0.24664178432387   -0.08777525750679   -2.37907443761573
H          -0.63459435480870    1.00242845562156   -3.42307813059324
O           1.27796892430367    1.76635794082853   -0.47332097037860
H           0.65498645816716    1.82914698290044    0.28845855869381
H           0.71640209508012    1.71294405749638   -1.26269416978617
O          -2.30401900269432    0.89282111886719   -0.39193070744411
H          -1.76661873548104    1.18575446611705    0.36724779446822
H          -1.76919463091417    1.08750967466499   -1.17470311877400
O          -1.75065656758609   -1.67710427554873   -0.04767526950559
H          -2.16632814988626   -0.79265573308333   -0.19294644637230
H          -0.71391088980467   -1.77303030852844   -1.17108435399398
H          -1.25850450713375   -1.57061042186160    0.78580998587829
N           1.66328386082901   -0.75949131200343    0.04194043353451
H           2.59280542394752   -1.08253855062225    0.28446987422534
H           1.66040155850511    0.29157955768757   -0.19095938086658
H           1.26041346709590   -1.27805210473891   -0.76041375292333
