    26
        -50.45283516  Gyration_radius:  2.46204375832 Dipole_moment: 8.015
 S           1.46073974437730   -1.08152726254088    1.60498312325542
O           0.27968037321300   -1.66653684009412    0.90707546351844
O           1.96415330966865   -1.88308897585841    2.66258681333668
O           2.44348922140558   -0.66807259581664    0.60059630294420
O           0.90897913319906    0.27350256039259    2.22734788267242
H           0.03399609196241    0.48099944116669    1.84258657001561
H           1.84091569373746   -0.76230822433403   -1.19816736856220
O          -1.49546984469176    1.00283403491985    1.25856266754151
H          -2.00938118868099    1.31827457798061    2.00287538082425
O          -1.89614938982587   -0.32019065147167   -2.27323836332235
H          -2.71719805127079   -0.13686198619261   -2.73197950076674
H          -1.50231349342399    0.53559083858817   -2.04936124064317
O          -0.20984573468011    1.62344187926171   -1.07306874871940
H          -0.74715983595967    1.55894284665698   -0.26486007625949
H           0.67039137100332    1.92595671881262   -0.74199263930163
O           2.12410173319141    1.89624848469851    0.13971694108803
H           2.34825959584318    0.95301435213055    0.32687363417507
H           2.08319689318250    2.31126050813595    1.00335004986494
O          -2.31112472612591   -1.27828526671610    0.33659571043151
H          -1.48131049888018   -1.69587148303939    0.63041204395937
H          -1.91224781310394    0.14038771935079    0.96114703855807
H          -2.22281457344920   -1.14738135853925   -0.62237544568171
N           0.83581659072824   -0.83593832896760   -1.40416009443783
H           0.41430050172811    0.12674639540314   -1.43477150205732
H           0.48177016441218   -1.30103106189395   -0.47325293407043
H           0.61522472249983   -1.37010631203890   -2.23748171830180
