    26
        -50.44697447  Gyration_radius:  2.68905170994 Dipole_moment: 6.046
 S          -1.13865854732788    0.53321999804554   -0.94969729515535
O          -1.65917950743711    0.74310054086866    0.37937456567694
O           0.12685694214272    1.13022869156297   -1.22425258971913
O          -1.07890126080373   -0.99826039034892   -1.20942619669776
O          -2.17383831494408    0.97992654977383   -1.98376032129986
H          -3.07308994046211    0.64741962973672   -1.60713152784037
H          -0.33892440612447   -1.41654679225049   -0.66268217841923
O           0.70402635169823   -1.97094077551140    0.34839303731944
H           0.50922717788391   -2.86825644085945    0.62548328115074
O           2.37797368811701    0.99243909738845    2.14081303679288
H           2.95726289512269    0.85485014066137    2.89160263007003
H           2.75308328479924    0.44552824969374    1.40447606964302
O           2.75654137034328    1.06635971056238   -1.87555073045643
H           1.79330539953599    1.06970081808931   -1.74221286639869
H           3.05026066580903    1.95061176249138   -1.64762228969810
O           3.21110988754315   -0.61393161002849    0.19802987906987
H           2.46069295981881   -1.21759323711999    0.12130545763173
H           3.18177020139711   -0.06347850385233   -0.61101676605362
O           0.05971461043453   -0.32579962495054    2.18658317435380
H           0.85302304315458    0.25740291291760    2.25478482803850
H          -0.60399156180607    0.18365724150147    1.69091834567176
H           0.48704253029378   -1.36739159091522    1.14291111643187
N          -4.17735321037781    0.08352840877174   -0.67212682551143
H          -5.04694949950782    0.59017210225556   -0.57478052575997
H          -3.61232869636132    0.21450782524583    0.16285908565421
H          -4.37867606292555   -0.90045472372747   -0.78727441449655
