    26
        -50.45075456  Gyration_radius:  2.55163442146 Dipole_moment: 7.324
 S           0.87918199808648    0.84023132388348   -0.11007906604000
O           1.32615950168061    1.05699627328695   -1.45999185972899
O          -0.50003386637611    1.11745838581869    0.15000734642757
O           1.21210102946341   -0.61618753668741    0.25724691759988
O           1.74262155477640    1.66980559621509    0.85307551431517
H           2.70399479349603    1.54337825466536    0.51077385102610
H           0.46311661677136   -1.10991204583300    0.77316338181165
O          -0.61742259754585   -1.90519708658976    1.40354184458264
H          -0.31903286360762   -2.81084430545463    1.50916925697409
O          -3.23185248248625    0.52056892755231    0.02533175098000
H          -3.22729589739239    0.49030618793381    0.99585631591995
H          -2.39893245271149    0.96041993092749   -0.19088211765571
O          -0.62292787507713   -0.53544931467201   -2.46033609234672
H          -1.23415644954789    0.07159835523464   -2.88419067051807
H           0.14367627315595   -0.00407450128975   -2.19214980362986
O          -1.91143966825057    0.41852570740395    2.47533038284951
H          -1.58407249055435   -0.48760103107157    2.46169686073905
H          -1.34425196058560    0.89649002112780    1.85558910232211
O          -2.16548022243347   -1.83832340547542   -0.60513555939051
H          -1.28774417014507   -1.91683778988112    0.62223496993500
H          -2.73910061929354   -1.05814601108120   -0.41402488822576
H          -1.58814762540557   -1.54414747573286   -1.33345743992773
N           3.92866308884433    1.14306055202171   -0.36590526118551
H           4.65839855757398    1.81892399209203   -0.54940920798597
H           3.36150984386963    1.02230638816858   -1.20073758180009
H           4.35246795371744    0.25665061743794   -0.12671793705985
