    26
        -50.44512144  Gyration_radius:  2.68141043211 Dipole_moment: 3.256
 S           0.86561689510124    1.73429965400926   -0.26497003873117
O           1.85637718236388    0.81912264174977   -0.77763880081455
O          -0.38872989614784    1.75293489079606   -0.93191842654954
O           0.68339205129675    1.44125350293744    1.24438219697178
O           1.45298689220534    3.16031268933541   -0.21871939908630
H           2.34923225616258    3.03668235536762    0.17902399554306
H           0.33888020174187    0.48685597662152    1.41837786140693
O          -0.08844057212436   -0.90910667069534    1.71531946199773
H          -0.31055815249803   -0.98587323933613    2.64518959296082
O          -0.83453418198702   -2.76340239264154   -1.58322401295461
H           0.04814399456804   -2.43549830955203   -1.29913592206226
H          -0.74855305262098   -3.71337101838603   -1.67371101676503
O           1.43430952256915   -1.86734193595937   -0.45389699599723
H           1.66826953948920   -0.97731752248209   -0.75995718189724
H           1.06849512224579   -1.74225934727144    0.43181242169082
O           3.60272038348221    2.08471358839579    0.78194211926436
H           3.31669062704352    1.39349774986537    0.15941048580839
H           3.41339065266056    1.75804723947730    1.66516249048306
O          -2.15773208205370   -1.59670350428470    0.45828567825329
H          -0.95631980563725   -1.17461183963381    1.19893470453319
H          -2.56781543549186   -0.78378755235478    0.06147436069968
H          -1.79305289757312   -2.08782290574065   -0.30872196131394
N          -3.04379548363119    0.61489903431952   -0.76400229168397
H          -3.38945655619761    0.39388643522868   -1.68983106322770
H          -2.14194589779411    1.07280436172514   -0.88216581051422
H          -3.67757129717151    1.28778612851221   -0.35142243801487
