    26
        -50.45488631  Gyration_radius:  2.44203231508 Dipole_moment: 6.275
 S          -1.85836627061340   -0.86103951622248   -0.96974928319871
O          -1.02223193365155   -1.74053277401556   -0.12175764190406
O          -3.02127347054682   -1.48158296427757   -1.49566328873365
O          -2.13797958687019    0.38784424424479   -0.21988477859352
O          -0.94836496063597   -0.42390492255631   -2.17528553722107
H           0.00169080318846   -0.40345578349555   -1.92106174736932
H          -1.71613362586381    0.23203676660169    1.24585986245607
O           1.67915889654913   -0.41807991537135   -1.72592105308483
H           2.07261595306523   -0.86620656953660   -2.47582515854598
O           1.33384461953159    0.41536932408956    2.07869902575694
H           1.91146998430802    0.81801768185743    2.72776190939374
H           1.40946514207153    0.98995396635070    1.25201361269240
O          -0.79487177002970    2.42657174010768   -1.20474147253356
H          -0.78860927418996    2.27883630475759   -2.15259484084305
H          -1.38354770201485    1.73122869481230   -0.83867736709128
O           1.54681520990540    1.80400776475827   -0.08331349626210
H           1.80963903745412    1.16047138445166   -0.75722449699746
H           0.69866894437366    2.17616668900562   -0.41584622202508
O           1.58925084852585   -1.87307968112217    0.42405379373791
H           1.77174754363732   -1.02981185838046   -0.94055734481645
H           1.62221994992811   -1.20718697378186    1.12788751420084
H           0.64120937800925   -2.03056220843977    0.24291311188949
N          -1.22891762736677   -0.36311882747165    1.99473268201110
H          -0.28474070701447    0.02226564883226    2.21481094232758
H          -1.10932625727142   -1.21481617565087    1.37009112879027
H          -1.79343311450831   -0.52939205955575    2.81928014598010
