    26
        -50.44538857  Gyration_radius:  2.62792459923 Dipole_moment: 8.037
 S           0.36640634583192    2.91214487891904    0.30614907636644
O           0.36570384151115    1.62950806119966    0.98354243164983
O           0.85452937056990    4.02039575479187    1.02809323714517
O           1.12776842756340    2.76643544733444   -1.01575254662136
O          -1.11733745746807    3.19128117232095   -0.13551690385868
H          -1.59132595291272    2.35854467565605   -0.25819379366476
H           0.74013296002541    1.98974209862686   -1.56324611894337
O           1.21913771853295   -1.46495296016039   -1.35518269903478
H           1.96392803040980   -1.94359369740716   -1.71977335386281
O          -1.68005684576855    0.47087092285023   -0.18443377105628
H          -1.72471654174742   -0.50444406259731   -0.23026860052574
H          -0.96179965944206    0.67450239966166    0.44610892613352
O           0.04555420535993    0.81417490545752   -2.20364343985073
H           0.58864387114529    0.01413337314558   -2.05172517405505
H          -0.74579073379107    0.68957884787411   -1.63662961778781
O          -1.28986479049653   -2.19673656576495   -0.61421103842794
H          -1.75300287134867   -2.58216125034467   -1.35946638376731
H          -0.36853999136037   -2.03702679989280   -0.90890000989071
O           1.81521892381051   -0.66442419539214    1.01214839410920
H           1.48917840261646    0.24833817305100    1.07015842116164
H           1.17668255376174   -1.18520120328373    1.55499535164714
H           1.51176922067892   -1.14721365891785   -0.43896137251727
N          -0.26940357394761   -1.91673933272180    2.23644062725233
H          -0.14172230977208   -2.70316520639753    2.85978122289007
H          -0.82625900909541   -2.22698678261448    1.44717951056198
H          -0.79483413482347   -1.20700498539106    2.73130759499228
