    26
        -50.45146364  Gyration_radius:  2.53163919252 Dipole_moment: 7.042
 S          -0.46392940660496   -1.70967015357801   -0.95216575252308
O          -0.77033632409608   -0.29125669189475   -1.00049221796208
O          -1.55618951292604   -2.54562831557758   -0.58955977889620
O           0.16147471248513   -2.13375197944194   -2.26756867715255
O           0.72570910252291   -1.89934783853463    0.03268807539671
H           0.69002665729043   -1.28360266301679    0.83302929679115
H           0.98757087687853   -1.46328334361549   -2.40612656693379
O           0.75758878662662   -0.30092604311726    2.02552943715703
H           0.92244093458733   -0.78656699056065    2.83524401967308
O          -2.98859231924698   -0.38741497595133    0.53746854057437
H          -3.01807090793157   -1.34854764387257    0.49260642558541
H          -2.36181397481528   -0.14060657034388   -0.16028270497173
O           1.23095730389077    1.24236345246270   -0.28669783172591
H           0.41870267364876    0.78153323845669   -0.59318014858299
H           1.42608882795768    0.84140199086608    0.57067716975460
O          -0.47838204412728    3.06770141349704    0.91666935803702
H           0.01424613548510    3.77277383911773    1.33819871904853
H           0.15410522885556    2.56721233989830    0.36867653515189
O          -1.45403606281872    0.92311584785803    2.32342621819068
H          -0.13825293289806    0.17739216121393    2.16353088925946
H          -1.28556729945990    1.77124307291468    1.87029201371056
H          -2.13445544149924    0.46672441253489    1.78408955201272
N           2.09631878628739   -0.50277359912147   -2.45704513626630
H           1.95084912724630    0.21050770488811   -1.73896224607828
H           2.14158611510445   -0.05201409114584   -3.36142045543596
H           2.97196095753508   -0.97657854393099   -2.27862474387362
