    26
        -50.44538867  Gyration_radius:  2.62822341385 Dipole_moment: 8.035
 S           0.07711916998071    2.34401794680238   -1.79208620949241
O          -0.17870280962635    0.91930977705140   -1.69795527950516
O          -0.28429907483885    2.98464115835986   -2.99490972339868
O          -0.59145122347404    3.04024246819651   -0.60179208714466
O           1.61631964172985    2.54511361356916   -1.53789507299311
H           1.96021982684022    1.82889841724225   -0.98842855929329
H          -0.28983867312296    2.60580562289087    0.27754006009912
O          -1.32668292067539   -0.30869360747541    1.90019170084906
H          -2.10771521082711   -0.38795119857384    2.44833128657355
O           0.25771105852902    1.83121866574437    1.45048082724734
H           0.97219308601474    1.29375360133732    1.04564463217413
H          -0.41596713182594    1.17873333302733    1.73061960040417
O           0.96873873828322   -1.74673489721865    1.69503867443205
H           0.11041091647865   -1.29796147018909    1.84695059554084
H           1.42210232509100   -1.76413234806299    2.53922395464405
O           1.74243317108147    0.19420157362180   -0.06207753696482
H           1.63507743789330   -0.60629761186768    0.48837660505463
H           1.01871202697486    0.16470807150105   -0.71802349818977
O          -1.97035261952456   -0.76167232453376   -0.54540233759280
H          -1.46713854649978   -1.59147594857779   -0.72375338815201
H          -1.63541324394596   -0.46614365689293    0.94836643638355
H          -1.50912161775243   -0.08534388377787   -1.06758663183623
N          -0.21415070929549   -2.81283284152932   -0.89518148722234
H          -0.51372509729367   -3.77160751017987   -1.01488599462906
H           0.34616012878062   -2.76045525758686   -0.05103174901019
H           0.37736134114598   -2.56934170280983   -1.67975480806455
