    26
        -50.45958851  Gyration_radius:  2.42015966758 Dipole_moment: 7.270
 S           0.24888983928377    0.19716495498740   -1.83226904506558
O          -0.90255903793242   -0.19688375253588   -2.59351764631489
O           0.01268140151438    1.36393317615804   -0.98135183789240
O           0.86453274561034   -0.87581831879993   -1.06102226336831
O           1.35143852332266    0.63782743785924   -2.88406613934990
H           0.79051713276721    0.87620341480925   -3.61324898531689
H          -0.10521395057913   -1.56062554348710    0.04654212318696
O          -0.70385859799674   -1.91348740052327    0.74745236884760
H          -0.55254761192156   -2.85852720360217    0.79089680086468
O          -2.31151426949273    1.50776601778264    0.54055708156811
H          -1.59751549403138    1.74555882446462   -0.06912691586200
H          -2.75115098743878    0.74312263559982    0.10807670649961
O          -2.81185489069253   -0.77622263085518   -0.75520054907043
H          -2.28408423026941   -1.34998670249355   -0.18284043370502
H          -2.25724573769996   -0.59833762900589   -1.53507591876374
O           1.14035116712126    1.43825858843955    1.27944334603483
H           1.91208535839792    0.73425611144697    1.17946697016498
H           0.73909635125802    1.51559955480379    0.34547025645299
O          -0.81986667930372    0.33167132676685    2.31109157180345
H          -1.51325752808749    0.83308128032976    1.78506020562458
H          -0.82144155988900   -0.56390545559967    1.92828408854483
H           0.32838762008565    0.97515890296285    1.83759649195368
N           2.88565647878214   -0.35293276608395    0.77409206487545
H           3.77414350907541   -0.03454856535357    0.41085621954780
H           2.32722257445655   -0.71314666826618   -0.00527829521055
H           3.05710787365771   -1.10517957981297    1.42811172396498
