    26
        -50.44321785  Gyration_radius:  2.5037375253 Dipole_moment: 7.915
 S           1.87781910955062    0.26368989528147   -0.84226142196453
O           0.89892760048616    1.31142323629849   -0.97722968563704
O           3.23783129952831    0.66013570958852   -0.80385905631628
O           1.51565933400910   -0.51436462523855    0.48687862104760
O           1.65988255992273   -0.81201548471536   -1.90482873385251
H           0.67983880352599   -1.10160985105362   -1.83268466315870
H           0.92484907180070    0.06447376901802    1.03594155353053
O          -0.06941974979295    0.96336872246257    1.94670951442068
H           0.25066033326921    1.09089427922357    2.84139253911481
O          -1.68581653420215    2.25211215476278   -1.13088857602014
H          -2.10641052615888    1.47722193510993   -0.73683702982421
H          -0.82142547051479    1.93650809252963   -1.43389011480219
O          -2.06924211779637   -0.10144104329308    0.40144437030173
H          -2.77365744607842   -0.49079958358504    0.92140638181275
H          -1.40111717223079    0.23643476044152    1.02329493001735
O          -0.70537876303064   -1.60388142185086   -1.49016725211573
H          -1.21588446009825   -0.99036220295953   -0.93428323150462
H          -0.44942130545733   -2.35012859049409   -0.89849241123273
O          -0.07727733521786    3.24045760074959    0.75968009334819
H          -0.83343642534242    3.10487011657567    0.14174680484605
H          -0.07608786957520    1.88360015835367    1.51268079187355
H           0.69406066937672    3.11879917858607    0.19359143139608
N           0.43142372045750   -3.31678483486838    0.27561221164002
H           0.07246650609080   -3.79380685456386    1.09298821382164
H           1.03032602176051   -2.55785093693727    0.58756343021468
H           1.01083014558884   -3.97094418958368   -0.23550872097109
