    26
        -50.44726197  Gyration_radius:  2.42902306705 Dipole_moment: 3.227
 S          -0.90969814502984   -1.05106708541088   -1.41538948708007
O          -0.41135680331528   -0.45780196664633   -2.62641309009811
O          -1.43381337551101   -2.36836152112554   -1.46963293710906
O           0.24331919418723   -1.00911193650611   -0.37032911188403
O          -1.99341306743701   -0.13330844216987   -0.80738560443951
H          -1.57885575503695    0.69820633942222   -0.41307426059739
H           1.05631739311575   -0.53004423533427   -0.69933041801332
O          -0.88012788977569    1.86580827264541    0.31837536306255
H          -1.53671191331479    2.46233232574633    0.68276373564448
O           2.47382879246437    0.24520325319371    1.63302494171142
H           2.56036029900620    0.20420665066976    0.67095355785706
H           2.85590278195055    1.08001424655659    1.90997026976206
O           2.33082201916028    0.29613894576606   -1.20342984241453
H           1.79519772015223    1.06986945152668   -1.55176299785473
H           2.67582967654020   -0.15782540141961   -1.97484336081116
O           0.56539625983364    1.97174486846455   -2.06486522616890
H           0.10445033699420    1.21746275308119   -2.48193558997117
H           0.06553247479115    2.18178979328533   -1.26198493909237
O          -0.22888536694452    0.29149828278878    2.19106150753326
H          -0.69987684653165   -0.54801855049603    1.96194488769466
H           0.72238407517666    0.11208385232766    2.07508715856247
H          -0.56807029445217    1.27743970286771    1.10675364304178
N          -1.65530277316916   -1.95606892235145    1.52428300442215
H          -1.54618592277499   -2.15450724744990    0.53484914373873
H          -2.64514696247268   -1.82731631051377    1.69641123538923
H          -1.36189590739609   -2.78036711911160    2.03489841702703
