    26
        -50.45015608  Gyration_radius:  2.44977417368 Dipole_moment: 6.616
 S           1.80696138962058    0.44009333124452    0.62853958021177
O           0.65360392748327    0.96415570887856   -0.05687099550717
O           2.48962495062760    1.34172274805658    1.49974115266789
O           1.36066785369522   -0.78690675620151    1.48217555469954
O           2.75149510379354   -0.15167858150090   -0.41083854671323
H           2.18840071748575   -0.24785065437465   -1.34616548378184
H           0.46763911640060   -1.12143305488001    1.18875294064858
O          -1.02409090551270   -1.61140138391746    0.87972684535055
H          -1.29370597755509   -2.24940768913117    1.54273383524279
O          -1.77394226681402    1.25128563593990   -1.15487895866767
H          -1.76841803484271    0.38139557797223   -1.57451129888428
H          -0.86641258468763    1.36862920490456   -0.83090529868725
O          -1.17214817409046   -1.49620266871702   -1.82838620916638
H          -1.09366389515446   -1.58073998921984   -0.85802357141236
H          -1.79592760712355   -2.16573214338395   -2.11371155148473
O           0.10439133413846    1.65610058026752    2.77270955991396
H           0.94459397017006    1.71347434506845    2.28991394926155
H           0.32109390340117    1.30930638304092    3.64066547052513
O          -2.08976293304302    0.61085522677672    1.46540768117824
H          -2.15767102728260    1.01173985052605    0.57288646502088
H          -1.49381413569559   -0.72647523885682    1.12723360256444
H          -1.37165231507242    1.09218873952267    1.91866605359844
N           1.36782599398322   -0.27055794187308   -2.51227315646014
H           1.10720666850620    0.69682224456561   -2.65536614272879
H           0.51671120081146   -0.79963707218078   -2.32510487400083
H           1.82099373675781   -0.62974640252598   -3.34211659339317
