    26
        -50.44726201  Gyration_radius:  2.42906238998 Dipole_moment: 3.231
 S           1.10220967946942   -1.60300251852966   -0.39021719008602
O           0.48292311762061   -2.62250682293743    0.41223985929919
O           1.89122569244429   -1.99840745081716   -1.50107672138888
O          -0.02747881179446   -0.65359135402240   -0.88602289835627
O           1.97231300080925   -0.70180909112957    0.51379240416926
H           1.39394486857036   -0.11158590402803    1.09350588557908
H          -0.92529193544512   -0.87704060446872   -0.50812915609285
O           0.46966232614800    0.88057571900559    1.83299347174912
H           0.98885635234831    1.43417700202389    2.41925915041471
O          -2.34856223962700   -1.19559487623501    0.15040555202798
H          -1.98988743088812   -1.28149081884736    1.08365816646497
H          -2.59556152307352   -2.08138436088951   -0.12268676615363
O          -0.98032188200848   -1.45119935714826    2.32483216295355
H          -0.37347908718863   -2.03848143928069    1.83260482629777
H          -0.53094754627473   -0.59557778442580    2.39219407371646
O          -2.45981100579085    1.49704183146157   -0.74673799337661
H          -2.54182434481382    0.55971131051909   -0.52432024574812
H          -3.00817981375599    1.97813206951195   -0.12428297015021
O           0.17522598929010    2.19311743751650   -0.31169372984665
H          -0.71743901008777    1.97890230019447   -0.64009149220531
H           0.29288275247081    1.45200671962169    0.99190898625402
H           0.81145631454963    1.76246059015599   -0.93528942252747
N           2.03935821932852    0.99753011471433   -1.93204572574439
H           1.96788218430638   -0.01208001781097   -1.85544474497449
H           2.98109315086367    1.25214299909031   -1.65932453186114
H           1.92975099256364    1.23795428682765   -2.91003095037875
