    26
        -50.44257849  Gyration_radius:  2.60452575302 Dipole_moment: 5.161
 S          -0.63198084674883   -1.35571398109670   -2.39133111094632
O          -1.68166419483840   -0.42028718956990   -2.07195925325334
O          -0.64044962252358   -1.95786437620811   -3.66977178428095
O           0.72504030099566   -0.61209055778324   -2.15956149400587
O          -0.59098855657607   -2.47050998028146   -1.31493132338749
H          -0.70391788874927   -2.09436099930720   -0.39882341052813
H           0.52535236292594    0.27892104369482   -1.75095432693682
O          -0.88594709675712   -1.60257065053547    1.11835874442452
H          -1.06918447279090   -2.37206036201314    1.65937295245862
O           0.14600287823303    1.68049858960347   -1.09494397610051
H          -0.28375312678843    2.18904505210952   -1.78602634132187
H          -0.56811857326541    1.42509746351442   -0.46611721172082
O          -1.97393188116638    0.74635023667688    0.29125783101681
H          -1.74628461766817   -0.07640500708256    0.75828425377620
H          -2.18309632432562    0.43131611488136   -0.60854834181503
O          -0.48980407188750    1.98096021830994    2.33352219845861
H          -0.99423651866956    2.24162051060947    3.10512879920574
H          -1.12984141623420    1.75327337534724    1.64334797387694
O           1.04248313809780   -0.31933218615222    2.17409717970287
H          -0.07233114155640   -1.14561076970650    1.53874513848786
H           1.70694078869974   -0.15760806366771    1.45744313729721
H           0.63212252172155    0.54773799539336    2.34212269009884
N           2.61453027227263    0.24318077038230    0.06311928504796
H           3.61478788500241    0.37860949545130    0.13527981200439
H           2.19835624830229    1.11890494619568   -0.23370368486137
H           2.43991393441282   -0.43110169884761   -0.67340774682197
