    26
        -50.44257859  Gyration_radius:  2.60451592719 Dipole_moment: 5.162
 S           2.52602194585726    1.11974044370938    0.56707749041380
O           2.04218758325723    0.40421949700675    1.72151412072421
O           3.87300218678651    1.54725637247381    0.56267637353292
O           2.24854201783829    0.21355656413831   -0.67794563381701
O           1.61307927360598    2.34384415266146    0.30043216747702
H           0.65068970569883    2.10967828989897    0.41204807678602
H           1.71570669548159   -0.57678623202315   -0.37425100083226
O          -0.92505778172481    1.84911752203208    0.57306687064974
H          -1.36416991433777    2.70015565060740    0.60915889806516
O           0.86242323574328   -1.80840433444268    0.16746083086936
H           1.46154897142953   -2.32821220201887    0.70761940576830
H           0.24612010331086   -1.36849161207709    0.79770169433080
O          -2.59715694125883   -1.56779195693356    0.63586785250938
H          -3.41630360316181   -1.64787193661598    1.12612957809226
H          -1.90859363562576   -1.33447506885075    1.27560646237052
O          -0.46724120705785   -0.39107980766322    2.04158857943306
H          -0.80899496553334    0.43995727198853    1.66811427752561
H           0.45803185632353   -0.16568911681489    2.25527604922579
O          -2.06787006895986    0.43082434499488   -1.20526421113064
H          -1.37087725978178    1.33024915633787   -0.18822379384260
H          -1.35432126272975    0.07870936622466   -1.79525499341096
H          -2.36769283041121   -0.33429896685898   -0.68264565074496
N           0.00719410043244   -0.63208223667733   -2.55003327807850
H           0.82077062772612   -0.03868220230560   -2.43333900542553
H          -0.04328811047986   -0.90949403307230   -3.52191801822985
H           0.16624925756825   -1.46394891572117   -1.99246313226793
