    26
        -50.46106732  Gyration_radius:  2.39331507671 Dipole_moment: 6.678
 S           0.82406023084615   -0.80128626004749   -1.12729112639090
O           1.04704346654318   -1.36926405058115    0.19264380087869
O           0.57559989243457   -1.80810309721672   -2.14525152732514
O          -0.27737659344895    0.16672121655062   -1.11830294415426
O           2.11621639936066   -0.02030310813744   -1.53386782862122
H           2.27917027442365    0.63563869788654   -0.81833378570525
H          -0.30674412331803    1.55617870285632   -0.42177461660181
O          -0.26568922217719    2.44921953393801    0.02542329541009
H          -0.61727493028574    3.07973763252212   -0.60443276594273
O           2.32790915522660    1.89969668500001    0.31167737407852
H           2.88023066293845    2.62484335027272    0.01365193134681
H           1.39509531966940    2.21845524088287    0.29684223171512
O          -1.46789064681146   -1.75560562894060    0.88591650086190
H          -0.49305015249005   -1.78471326021549    0.77473584352797
H          -1.85673216084782   -1.81737008791453   -0.50002628764089
O           1.25862625616828    0.17326066103543    2.39131706001571
H           1.82387572185804    0.87510729217160    2.05511267600572
H           1.25940604911365   -0.50266194213231    1.68841468365250
O          -1.38651962689287    0.64549264371672    2.00366795979174
H          -1.25465103710697    1.37172915100394    1.38293318486330
H          -1.61861114415007   -0.87149307046795    1.31358046822425
H          -0.49288566948040    0.47758580559802    2.36955622648434
N          -1.95820168955542   -1.86932962539003   -1.61455014771585
H          -0.94247513183663   -1.94386650119134   -1.95248412960912
H          -2.32101659939597   -0.97959543810663   -1.94481380845696
H          -2.52811470078780   -2.65007456309861   -1.92434425869814
