    26
        -50.44241762  Gyration_radius:  2.58581728573 Dipole_moment: 7.553
 S           2.37563140801447    1.26975544001675   -0.69594157125663
O           1.36234618530824    0.38995993598003   -1.24534893409892
O           3.35776099973676    1.74904457362125   -1.59192706280688
O           1.64442050496724    2.42887159065252    0.03440245563762
O           3.07818770531005    0.53050395448179    0.46977219406402
H           2.38529281566324    0.26716294761852    1.13216047775914
H           0.66351649388316    2.38512295173820   -0.19905336876112
O          -0.32844403756688   -2.04987483860469    1.16433694910306
H          -0.47200191692694   -2.96996912956790    1.38708851392138
O          -0.74043669292731    1.88060180952532   -0.69280495133957
H          -0.23817914068131    1.19413254161381   -1.16469808668285
H          -1.15001767186265    1.42366020952521    0.07322161223566
O           1.31599124304296   -0.24681094138523    2.23018876188633
H           0.77975238535525   -0.96999998486719    1.83010263922427
H           1.83503193027027   -0.64131650530555    2.93355627067130
O          -1.54407719583661    0.42079209944441    1.44571547609346
H          -0.94872524271593    0.78212229655139    2.10770083650487
H          -1.26824638332963   -0.50460046744285    1.32880782432064
O          -0.20435318149774   -1.81854842530768   -1.38251160520773
H          -0.24734573377678   -2.01341565636785    0.15439051933512
H          -1.06207662444213   -1.36646449692548   -1.56666826034429
H           0.47852235614322   -1.13718608859694   -1.49092183887714
N          -2.54546699168165   -0.41150288606496   -1.57489180260817
H          -2.83872424324516   -0.23891828159132   -0.61995472245902
H          -3.31745622767063   -0.84455012922151   -2.06575116804895
H          -2.37090274358238    0.49142747043383   -2.00097118824736
