    26
        -50.45220966  Gyration_radius:  2.5371416387 Dipole_moment: 7.647
 S           0.01819913882193    0.90280640198755   -0.97960908141246
O           0.81340267375543    1.08371704489612    0.20739035848312
O           0.05316908700223   -0.41777364331162   -1.53929255022274
O          -1.43971187395884    1.29954496051872   -0.66481464108900
O           0.41895180888238    1.92500075354788   -2.03469464560649
H           0.65643512528433    2.78877845723939   -1.49836427843917
H          -1.85810736459354    0.62980103715354   -0.01200430851663
O          -2.33101281782370   -0.36143084952494    1.02504639421112
H          -2.98125583011063    0.01944570570036    1.61836162451282
O          -1.42129936376822   -2.55973709851212   -0.54763551154450
H          -0.93408543954730   -1.91444866507863   -1.08000978383278
H          -2.04524473813739   -2.04028280867468   -0.02810328253555
O           2.16986597127135   -2.01871010352574   -0.88797319424282
H           1.48218256980130   -1.38042396159720   -1.14075696146559
H           2.17590205291852   -2.69047933132375   -1.57302005645303
O           0.63583321899913   -2.86380875638808    1.24251271712927
H           1.36684276968788   -2.63315646793690    0.64246563411580
H          -0.13462276047982   -2.99609848730212    0.65732568598013
O          -0.09771479708290   -0.53593482603460    2.20530664472763
H           0.41526550341765    0.05900379638258    1.63468733811426
H          -1.46870561001533   -0.47886768387366    1.57659579803417
H           0.22982053079221   -1.45308720300739    1.99104200987496
N           1.00542941150879    3.79641672061379   -0.42147551757445
H           1.85337204933339    4.33122619339266   -0.55364331241692
H           1.15572326882138    3.09077394831752    0.29495140991787
H           0.26136540526122    4.41772488632328   -0.13428849977534
