    26
        -50.46455189  Gyration_radius:  2.48433400791 Dipole_moment: 2.466
 S           0.75570207866388    1.83033134479509    0.22323855433542
O           1.04878232312749    2.97944405932430    1.02233075581950
O           1.51028252897585    0.63615184083964    0.55071657478682
O          -0.66779058692150    1.54937037777273    0.04956307461473
O           1.24773072925566    2.21563038758294   -1.28122536011679
H           1.51196136238966    3.12665780406199   -1.19063533740032
H          -1.43107481991026    0.42708322065450   -0.78376843278104
O          -1.87702350803684   -0.25364578303286   -1.35056597840040
H          -2.77238619616562    0.06057781203506   -1.48346227374949
O          -0.60340472934759   -1.48399004042189    2.53337668441457
H          -1.19362448945868   -1.66690545594083    3.26585118334506
H          -0.42036799629234   -0.52362193126574    2.57362911081353
O          -0.43366819301324    1.22109092065900    2.68582793320320
H           0.33155847984697    1.78558067687091    2.82355735881517
H          -0.70815865973429    1.40831144726007    1.77430619987756
O           0.43176502397085   -0.01672677441114   -2.83840168648175
H           0.73187430970755    0.82408545306789   -2.46688530231576
H          -0.49540037230287   -0.11370108650499   -2.55700094033357
O          -0.97447068469432   -2.45296027372240    0.05076165325152
H          -0.90083872736877   -2.16237178228807    0.98494679079658
H          -1.49328226519726   -1.76987871577511   -0.40884641930804
H           0.43144925741446   -2.06420561320644   -0.48716757181125
N           1.30516879675599   -1.55192198526614   -0.84358039633248
H           1.45496977096505   -0.72009896160714   -0.20166770502513
H           1.08907730821689   -1.13247576571588   -1.78111147517954
H           2.12116925916676   -2.15181117573850   -0.86378697485580
