    26
        -50.44563134  Gyration_radius:  2.58812951564 Dipole_moment: 11.552
 S           1.81205848191303   -1.95783621956071    0.34913279807874
O           0.54928203588476   -1.52683552845893    0.99947300047953
O           2.02117297931833   -3.36226048944166    0.41947017385660
O           1.80066789636370   -1.42231412395561   -1.03966265102179
O           2.96243659957953   -1.21997589521902    1.10393855281130
H           2.96578567543412   -0.29875603520523    0.75763272693041
H           0.32463867108235   -1.33613304916517   -1.45500200165514
O           0.15810322708917    2.17777596918240    0.33671000780162
H           0.24944957559804    3.04276730751338    0.73827271770582
O          -2.99594224299576    0.10482136147132    0.53921915168740
H          -2.72860702120769    0.65833827877663   -0.20706023520648
H          -3.85005895178400    0.42092726752632    0.83651159498201
O          -1.53683834436599    1.37072532792661   -1.51589706564450
H          -1.37513706331125    1.82429773946948   -2.34442319580846
H          -0.89552047721398    1.74616205321828   -0.86141310586402
O           2.60070368146674    0.98716909259289   -0.29579079849279
H           1.77425932175357    1.44867827118470   -0.07827152361185
H           2.35370347551829    0.23246667122137   -0.86091551347875
O          -0.70089707885056    0.51081710086785    2.09053206435808
H          -1.57999047563435    0.27419483813527    1.75168173958210
H          -0.14302113731085   -0.27196487126539    1.89702699021590
H          -0.13776181703830    1.55242973993432    1.07695942138217
N          -0.71126319168330   -1.25562789356793   -1.17623625039617
H          -1.10099639490265   -0.31808836281716   -1.37926484092599
H          -0.52830747927870   -1.38314710588600   -0.12947224959957
H          -1.28791993543153   -1.99863144454268   -1.55315151815687
