    26
        -50.44563156  Gyration_radius:  2.58813093121 Dipole_moment: 11.545
 S           0.36007201157447    2.65670024141268   -0.22598714512360
O           0.65125019770219    1.60815094739728    0.78348373909418
O           1.31103697090164    3.71344999937476   -0.21824435947343
O           0.22834803452534    1.97840592545558   -1.54441343687650
O          -1.05135882858200    3.22150733057486    0.12970554336256
H          -1.69878692628209    2.55845112299811   -0.20152477317488
H           1.12964716213513    0.73621882659318   -1.48021621161936
O          -1.85001683104442   -1.17909087003093    0.26813201353463
H          -2.65524934520865   -1.56119628588863    0.61941124393648
O          -2.26600799924358    1.22195561123623   -1.09057624297119
H          -1.42073260104333    1.38156372672629   -1.54881141486811
H          -2.17074258241088    0.37371659174008   -0.62710099817902
O           0.15772000590459   -2.36040602709617   -0.96912026165130
H          -0.12763603395052   -2.72242190321084   -1.80926430119629
H          -0.64711236723860   -1.96913093137245   -0.54528670358501
O           1.61273525673034   -2.14603665028970    1.43782390485776
H           1.16896720130906   -2.47779468099842    0.64550793287212
H           1.82481562415609   -2.90413971419464    1.98385056990837
O          -0.38709399858960   -0.34266582568316    2.20578778370894
H          -0.07900104472201    0.51775370235878    1.85083482077896
H          -1.33353143278053   -0.82641828307983    1.06507902757538
H           0.39145925297215   -0.92126905927680    2.15468312832257
N           1.63189405447882   -0.01207411159574   -0.89286767928022
H           1.17870129161360   -0.94003760292587   -0.96830302821806
H           1.41182072048402    0.45345144697698    0.04537332167532
H           2.62880219660615   -0.05864353722188   -1.06795648340782
