    26
        -50.44563154  Gyration_radius:  2.58811350446 Dipole_moment: 11.546
 S          -2.54792310158247   -0.65977173726569    0.55845392071155
O          -1.31041452396077   -0.37851848832808    1.32823682908044
O          -3.73028008309835   -0.28033513147449    1.25065738818308
O          -2.39863965897653   -0.01138168424291   -0.77311984156525
O          -2.56178883844342   -2.20059980141478    0.30691393225390
H          -1.92793271210880   -2.35963427883855   -0.42887314230088
H          -1.49460898275589    1.21046475241081   -0.55645863369684
O           1.62252205782787   -1.18836811964502   -0.91613639341574
H           2.29930642846787   -1.84454010018559   -1.08702165775185
O          -0.92078497539972   -1.97800589727671   -1.74746171714616
H          -0.01520494464459   -1.73633739469007   -1.49272161852442
H          -1.44832838569001   -1.16004316864299   -1.69741486990244
O           2.04202436133628    1.66188235632895    1.52960745499634
H           2.15596186334774    1.71669129561428    0.57110461781852
H           2.86848093110000    1.93405832070094    1.93050640477509
O           1.70744342638081    1.42517843747235   -1.26154724324863
H           1.79134323628505    1.64167968379710   -2.19128680305288
H           1.71989712482738    0.43683071533036   -1.20217843823810
O           1.22325315043729   -1.01472056551980    1.61446042034334
H           1.47222285505108   -1.19177168050604    0.08579387342090
H           1.52378858472944   -0.11402145533883    1.81932048396982
H           0.24476179160787   -0.96178896058596    1.64741831825123
N          -0.73572807092320    1.70905012043190    0.02072311968766
H          -1.01286606733389    2.63011165429856    0.33929414677680
H           0.17988883642699    1.72251304470575   -0.46261984395410
H          -0.74639434290579    0.99137808285337    0.81434930252671
