    26
        -50.44563148  Gyration_radius:  2.58812693662 Dipole_moment: 11.549
 S           2.28312964237953    0.34814208186425   -1.38047005303615
O           1.11738974647152   -0.56895114422756   -1.43375809047132
O           2.85153002353640    0.59820815004194   -2.65930715788647
O           1.84597125912236    1.57971396000826   -0.66762883864252
O           3.34071456370095   -0.34663869517953   -0.46589186416890
H           3.03564165860330   -0.20098936307260    0.45831833821102
H           0.34494549576314    1.72794586240690   -0.94935242947074
O          -0.33710983387211   -0.74437831643818    2.05365873038295
H          -0.38786012333556   -1.29373584259207    2.83687112959901
O          -2.74270480775689   -1.01537410967457   -0.84766792061255
H          -3.56819598106054   -1.50149592394721   -0.84147315569977
H          -2.78709284169403   -0.36477830817627   -0.13387988125985
O          -2.11539381573033    0.94419565771377    1.08249278001351
H          -2.24885868639218    1.67881919904475    1.68321077402976
H          -1.47014720580406    0.33596362438837    1.52322009489589
O           2.14055064592090    0.49567140866066    1.72797376935681
H           1.98194539229748    1.15621601477353    1.02912753915734
H           1.28798342562073    0.06052649458020    1.89273292414541
O          -0.35676380898104   -2.23596540154117   -0.03623765736028
H          -0.30253402852353   -1.37933064515784    1.26488087754203
H          -1.19674134706722   -1.99926542889142   -0.46280014497612
H           0.32975795230576   -1.80121177917241   -0.58496451509464
N          -0.59643019030082    1.27868852049079   -1.21409441666122
H          -1.24531212068471    1.22348407461687   -0.40907268538146
H          -0.17426540832775    0.32200864411142   -1.44006387098190
H          -1.03014959618694    1.70253125535353   -2.02582426557040
