    26
        -50.44241757  Gyration_radius:  2.5857565665 Dipole_moment: 7.563
 S          -1.76188627194459   -2.10135152359172   -0.47301476796560
O          -0.54532010732260   -1.79198566559035    0.25293129745137
O          -2.34330039247767   -3.36686610641349   -0.23331185384936
O          -2.76704594666255   -0.94558474439228   -0.21800638323213
O          -1.46997034385527   -1.96266148943731   -1.98782918660422
H          -1.13910378826985   -1.04077133930960   -2.15726669447319
H          -2.40121425579711   -0.36143778950971    0.51936743111303
O           1.82074375739791    0.76864326191137   -1.32749381732141
H           2.68967929064002    0.91863798238128   -1.70064155750787
O          -0.20090918525792    2.14441690513638   -0.03114303887613
H           0.60985246747003    1.75675904200102   -0.40346407430723
H          -0.83005875809096    2.16382414787539   -0.75715488083225
O          -0.53910852411986    0.41845519487731   -2.51084810074436
H           0.36710870617194    0.48388235410749   -2.12994558389372
H          -0.44205576481463    0.43535767962261   -3.46481804951329
O          -1.43507852371218    0.32193905258355    1.55262382072983
H          -1.01881702544920    1.07336467324539    1.07790789072170
H          -0.85240402236193   -0.44007547341632    1.39143234967697
O           2.01032929685808   -0.94323342398590    0.56697926740530
H           1.19010980805679   -1.45228533041826    0.46459527743601
H           1.93888839145120    0.05916386155824   -0.61304376718646
H           1.86632141112940   -0.36246186822906    1.35176623162914
N           1.40110592360733    0.86315132400611    2.53283915001472
H           1.15369456858115    1.71844615004366    2.04817783426848
H           2.12054415534007    1.08396349453839    3.20966737478170
H           0.57789510337678    0.55870961038913    3.03969384107655
