    26
        -50.45400599  Gyration_radius:  2.46743494477 Dipole_moment: 2.264
 S          -0.36819597187688    1.42920278231000   -0.19050680519257
O           0.78915812102102    0.99225991787759   -0.92754455294419
O          -1.61956763654560    1.17635629523281   -0.83426466190946
O          -0.34982603197357    0.77886261180256    1.21008793402966
O          -0.25967558025934    2.91405895972092    0.15094255386270
H           0.52929161007588    2.98108745386342    0.78578002727574
H           0.08688416227920   -0.15349552400725    1.23196530209043
O           0.72582384943422   -1.50002927767780    1.32295426818037
H           0.43487628744844   -1.91749136517018    2.13690261757920
O           2.71016844887958    0.52846940270472    0.85596719782203
H           2.38140817596036   -0.31405558546648    1.19146504607673
H           2.22232734505284    0.66807150692493    0.02450001220250
O           1.65392128893839    2.75749866444459    1.82847239737269
H           2.18638965354329    1.97980248817087    1.52132905960512
H           1.21787149143880    2.48104876510573    2.63824755466792
O          -2.81516740217168   -1.03495249348392    0.11430477701093
H          -2.42580326622797   -0.19680115860648   -0.20043446396958
H          -3.69450873763457   -1.08021360257579   -0.26482587267219
O          -0.68580367862768   -2.62160463170296   -0.46375510100530
H           0.24018071984402   -2.00644249484143    0.57260874927547
H          -1.54373933316780   -2.22878741335162   -0.21399450516736
H          -0.46530850470653   -2.19569829826629   -1.32988679678108
N          -0.27078498246842   -1.08547063521819   -2.62955286479359
H          -1.15868539522628   -0.69997435158151   -2.92772168351456
H           0.26154135334369   -1.31537567700482   -3.45956032587449
H           0.21722399363866   -0.33632633918089   -2.14347988321545
