    26
        -50.45060354  Gyration_radius:  2.45489829789 Dipole_moment: 6.038
 S           1.91847090771695   -0.01203846647545   -0.31530049069753
O           0.75088546315055    0.82658902436954   -0.22132830180071
O           3.03530052960455    0.40604270127931    0.47222631142984
O           1.51586331918440   -1.46006894188128    0.08510848900270
O           2.30873843344792   -0.15885558978541   -1.78033778643260
H           1.37680642265895   -0.16340436464339   -2.30607946541902
H           0.63349418591528   -1.49439514362429    0.56065984517190
O          -0.74377468097672   -1.63909773087600    1.30764535170686
H          -0.65373100351402   -2.29585377628370    2.00015410123828
O          -1.82121866434210    1.53952280422087   -0.03462401408349
H          -0.86292089760323    1.48103844961123   -0.18018572840146
H          -2.17267036407003    0.73750628080876   -0.44142582662866
O          -2.01828508077951   -1.15487434160886   -1.05972292178394
H          -1.56709702654489   -1.38135986355912   -0.22583111714596
H          -2.77307101713575   -1.74166280764152   -1.12941677939389
O           1.57848138124534    1.40921072151648    2.52563091214164
H           2.17166165144181    1.01288441711121    1.86271538655203
H           1.63786553223754    2.35720737976966    2.39134438889857
O          -1.03107514842091    0.62177822631845    2.40459756667020
H          -0.11001476445772    0.93930921989610    2.50623316833740
H          -1.41542783186997    1.12682925230271    1.65754006585662
H          -0.87744044638145   -0.73449921254549    1.78591056463527
N           0.02563644673865   -0.09000947492859   -2.88087097467670
H          -0.64345138774428   -0.55179489047581   -2.26621219013495
H          -0.05556748322560   -0.47444300239654   -3.81310994814805
H          -0.20745847615588    0.89443914953411   -2.90532061691030
