    26
        -50.46358811  Gyration_radius:  2.4045965216 Dipole_moment: 8.803
 S           1.77681377690316   -0.14943421771599    0.64844743611314
O           0.68358170326633   -0.07250715666264    1.63591302765180
O           2.98314363687997    0.46783870649664    1.07733435791968
O           2.03199225279655   -1.69675525526997    0.45106969810495
O           1.29558058315266    0.31315086012810   -0.66148007015077
H           0.11355967868610    0.00573473326752   -1.59971732166430
H           1.23316391220140   -2.03255701033190    0.01173726997745
O          -0.63759445278727   -0.30968608087348   -2.18226342536231
H          -0.39553859115356   -0.06053449243060   -3.07544597898932
O           1.82339663819139    2.85071327415751    0.01489400541318
H           2.52666356893821    2.68908922416959    0.65031662519130
H           1.71006365739755    1.99389110308549   -0.42757893626878
O          -0.23019734886276   -2.59512133417620   -0.86469679159366
H          -0.42494247045201   -1.83553684493067   -1.46223560327381
H           0.04359256040667   -3.32683563830795   -1.42041114906924
O          -0.62414067541640    2.22909029639946    1.06222227908460
H           0.08117643312237    2.75370435030996    0.64349974161560
H          -0.15078289923605    1.46968640419408    1.44489801118003
O          -2.36801602705087    0.83493239795441   -0.33740446220448
H          -2.04519340361381   -0.36694482105537    0.51133512092968
H          -1.80871138467091    1.50872208091762    0.13275173075497
H          -1.89734736164601    0.62209338215199   -1.15887369029720
N          -1.57754220212339   -1.16171333328623    1.09652172507688
H          -2.13172499560042   -1.40808994286553    1.90863879794957
H          -0.62471287601573   -0.74825296027971    1.39436865391813
H          -1.38628370340298   -1.97467773506461    0.50615894804711
