    26
        -50.46358814  Gyration_radius:  2.40455633346 Dipole_moment: 8.805
 S           1.35143907380590   -0.68330429510695    1.14321948769066
O           1.74967077313733   -0.21774786502823   -0.19868652212860
O           2.11512887463102   -1.78296341264148    1.62031089642241
O           1.59315722365890    0.56038140876900    2.08831835506128
O          -0.10258196317272   -0.89715507975021    1.18302226862309
H          -1.36814773156758   -0.09433390161324    0.83002860162037
H           0.93591811479860    1.22077073361883    1.81305490028305
O          -2.13672349944785    0.52230052426268    0.65016561578499
H          -2.87479656133969    0.16895824863172    1.14902704530006
O          -0.34282893584990    2.38219756993691    1.31967520517795
H          -0.57384090756467    2.88955809896998    2.09967734411712
H          -1.10514651832345    1.78805382014252    1.12533000473224
O           0.23133224315020   -1.65483364957030   -1.92071047073802
H           0.05308607440489   -2.45755790718301   -1.39925809385637
H           0.92069127898435   -1.19591531681810   -1.40950270606374
O           0.21032102036549   -3.37183841884323    0.20649487405092
H          -0.05772017310034   -2.57158133884852    0.68659842669830
H           1.10095291158517   -3.54292934822025    0.52591808169883
O          -1.46219723371167    0.36052020417384   -2.03732365818767
H          -1.94791478941143    0.31081571115354   -1.19865305150062
H          -0.33523116025155    1.29111941864191   -1.67396488144990
H          -0.94554635282275   -0.48584917862073   -2.10560086044779
N           0.53837078783747    1.78851798150419   -1.24675434024378
H           1.12024112386397    0.98499818571143   -0.81879791125639
H           0.25915067405830    2.40495772053239   -0.47990970228021
H           1.07321566235687    2.28286008613842   -1.95167889910908
