    26
        -50.46873341  Gyration_radius:  2.55099678785 Dipole_moment: 1.242
 S           1.76846993516492   -0.05616781851892   -1.26881847673190
O           0.74782709783482   -1.08984926005126   -1.07364344249387
O           3.08620772078772   -0.51422731417708   -0.89903799960296
O           1.79856494769005    0.23412299424630   -2.82916204782282
O           1.38115014602743    1.18965983817503   -0.63924852790917
H          -0.14806797994536    1.68250649168855   -0.62551626061486
H           2.29355600436410   -0.49745818021008   -3.18555301303206
O          -1.09788863246403    1.96030780780654   -0.57900113459424
H          -1.11250080643779    2.89230803232440   -0.80053144052729
O          -3.00599648948116   -1.30568254038641    0.63125371192447
H          -3.94777155324401   -1.37987945870176    0.47544342099361
H          -2.59640181759015   -1.12101884705330   -0.25146313073009
O          -1.83035564806687   -0.51571751384807   -1.61214746811141
H          -0.91310648703281   -0.83855027310419   -1.54698597550461
H          -1.76880843112563    0.43395029989751   -1.42850427331253
O           2.82253962294109    0.29458770394726    1.59759346480816
H           2.62671314996525    1.21705039336497    1.40876892615247
H           3.11213466087599   -0.07086852255980    0.73304372403759
O          -1.62967401466994    0.67482711561532    1.78017807178929
H          -1.51871252020505    1.26397971773046    1.01075797495741
H          -2.28251593656056   -0.00126684092964    1.49516705090272
H          -0.37717473043782   -0.22873875579415    1.72821797992762
N           0.44128917942439   -0.90552621063658    1.54120433897366
H           1.36510517947462   -0.44762570916392    1.75940435298280
H           0.46802046832006   -1.10744970764865    0.50945110724972
H           0.31739691467789   -1.76327343259229    2.06912905637997
