    26
        -50.44382805  Gyration_radius:  2.81677074477 Dipole_moment: 6.221
 S           1.50829785793591   -2.18136756646740    1.13692972523041
O           0.08912566799214   -1.92153290341133    0.92529270059943
O           1.90178397723763   -3.53855829885828    1.04665514718046
O           2.27908499645414   -1.29954636403885    0.08865838838906
O           1.94376354407665   -1.56480818648976    2.45168646334206
H           1.70751828992040   -0.49902810875675    2.40964980520541
H           1.65990582155533   -1.08153662015460   -0.65207549924753
O           0.23779792642699   -0.72020511394639   -1.42445043523618
H          -0.15603908220150   -1.31378221284416   -0.76176091315890
O          -2.08120952525968    2.20201711157256   -2.10527402928414
H          -2.02774575863452    2.91145978291479   -2.74664037620121
H          -2.01468537793600    1.36609032991851   -2.60896975373174
O          -1.51146525447888   -0.11589749464513   -3.42774114048310
H          -0.87731494636799   -0.46550077292034   -2.77000821401280
H          -1.09419861422994   -0.21682495122668   -4.28414447946645
O          -1.40422400230810    0.07201627782742    1.82050674884869
H          -2.31647382138694   -0.21550129537498    1.88234030763379
H          -0.88469405654727   -0.72026552981805    1.55578865824127
O          -0.26961007109212    1.55486411610692   -0.20548815727783
H          -0.80495005136177    1.17290995022390    0.51350648846152
H           0.11840115390198    0.19225818703750   -1.03904725612559
H          -0.91392409371193    1.94203641603158   -0.83163601486535
N           1.32027247983018    0.86994913591459    2.28307608777566
H           0.33716687260169    0.90234476821863    2.53688193425866
H           1.40412922978003    1.18173352884690    1.32135548185235
H           1.84928685782304    1.48667582435996    2.88490835206161
