    26
        -50.46935346  Gyration_radius:  2.40011297359 Dipole_moment: 3.539
 S           0.97033153371252   -1.39606834882306    0.67661245144832
O           1.26967796699284   -0.90201822023068   -0.67888490549249
O           0.96778427134290   -2.82115402463893    0.76710847332726
O           2.07932659122171   -0.80899847919106    1.60779894897787
O          -0.30109741770079   -0.80485122985023    1.13857447873653
H          -0.75722765240488    0.66774540519966    1.29979889216890
H           2.01321660250683    0.16133664259259    1.49285410508812
O          -0.98273642660167    1.63639663892927    1.40385917848287
H          -1.58711480352085    1.68877103758692    2.14558393808487
O          -1.72821368441545   -2.71189910305123    0.03344936685842
H          -1.03357481951967   -3.37869269008002    0.09236285198191
H          -1.40882902604081   -2.02230083755389    0.64893506169923
O           1.29270927659050    1.68101308150150   -1.40063206201713
H           1.41314444605676    0.72726730694438   -1.22484608745498
H           1.64490255800233    2.11635236242252   -0.61789558055102
O           1.70167290168512    1.85565815834118    1.43384504538141
H           0.72147208612276    1.91948825949845    1.44957844588382
H           2.02487882507332    2.26000222307993    2.24109445791368
O          -1.38130751659701    1.56355832382594   -1.35450848358711
H          -0.43191917322491    1.76590776212483   -1.52402299829980
H          -1.35021401846436    0.01430812829254   -1.69618065133963
H          -1.47830296700774    1.69468580325532   -0.39849676524467
N          -1.02595398561567   -0.98880323862321   -1.87585484630408
H          -1.52883208303130   -1.68752371065686   -1.27395031971516
H          -0.02028813329233   -1.00834738772012   -1.52500749128128
H          -1.08350537187918   -1.22183385317181   -2.86117547474264
