    26
        -50.44382799  Gyration_radius:  2.81686279853 Dipole_moment: 6.224
 S           1.51691432895784    1.78811446711779   -1.68133949340798
O           0.44662224485838    0.82622577667824   -1.91688885721395
O           1.51557773015406    2.92376703591175   -2.52701919404511
O           1.40690082817423    2.20920770113417   -0.17103036033043
O           2.85397965456963    1.07405787474715   -1.71515947442484
H           2.82205997568553    0.28049799961479   -0.96564549354681
H           0.48552767348952    2.02319956409296    0.13902646938320
O          -0.97825057416608    1.25546450090185    0.26778895375682
H          -0.85161440637222    1.07071406300752   -0.67899786413685
O          -3.51739623146663    0.69809288455008    1.09298584505937
H          -2.66594674152277    1.01311369415123    0.72867383339723
H          -3.86914273712271    1.41863437131224    1.61727589418503
O          -2.60239673377809   -1.71780480347381    1.97142435011610
H          -2.92564360277479   -1.83214400168632    2.86581031190121
H          -3.04549586403875   -0.92179551814968    1.61504825618224
O           0.38396715833722   -1.77214380093411   -1.41614491248179
H           0.42497081774006   -0.82831334381010   -1.69041696552329
H          -0.22906222054712   -2.19838722817502   -2.01718237683578
O          -0.10153194945398   -1.04409437014598    1.19626195403027
H          -0.64493434803454    0.43388145874172    0.72528910877789
H          -0.93217847296381   -1.40426478852231    1.56704502980871
H           0.00331322008268   -1.47588304855204    0.32911129102708
N           2.67191759674372   -0.75908625906965    0.00323839961831
H           3.55528596509303   -1.08619680394601    0.37075724717389
H           2.19828711188629   -1.51784781905200   -0.47832519046014
H           2.07826960652815   -0.45700960650599    0.76841325794213
