    26
        -50.45667171  Gyration_radius:  2.55982011145 Dipole_moment: 5.749
 S           2.50367704330321   -0.45464016749727    0.87147224702579
O           1.97161098614631   -0.19772139059896   -0.46832775292723
O           3.91981997946267   -0.35807142672208    0.99124635694668
O           1.90899604792372    0.75981838929376    1.77313785227894
O           1.87989730098299   -1.64603565127576    1.44040459739392
H           0.43441893765295   -1.50279529302736    1.18397358880277
H           2.69577293236166    1.28384359198978    1.87972903398382
O           0.38940706465094    1.93969681910670   -0.88198805794069
H           1.09255527859053    1.26622168928947   -0.81344427588456
O          -3.05368478988793    0.36503185480921   -0.03619426680262
H          -3.84225906080991    0.89244106753049   -0.17073695930732
H          -2.46538046984085    0.88664507318686    0.52999657226755
O           0.20597774123221   -1.63131596811824   -1.72453590838225
H           0.94375211312893   -1.08999235533028   -1.34017076664524
H           0.62125075801412   -2.37114094427490   -2.16857189422766
O          -0.82078385966364    1.33799834220176    1.30124243067559
H          -0.13261285086180    1.43759015296663    1.96581391525353
H          -0.38632996227272    1.68515239912142    0.45388668216498
O          -1.42948436499261    0.55187317068709   -2.31506231084998
H          -0.23241495000292    1.60037646415252   -1.56195704078104
H          -0.91771363672241   -0.26792632197414   -2.35966975229067
H          -2.09440427450786    0.41311750006343   -1.62078411735534
N          -0.57861496291637   -1.29155426071621    0.85753196246807
H          -0.59324383706412   -1.49310584606385   -0.15799913775614
H          -0.75365106380100   -0.26164571029861    1.02376557028875
H          -1.26655809026478   -1.85386118855803    1.34724140160232
