    26
        -50.44736363  Gyration_radius:  2.46620220717 Dipole_moment: 4.766
 S          -1.74921488483081   -0.37095660162286    0.75865213679010
O          -0.53268171750553    0.33525081734231    1.04008992256367
O          -2.86835219976142    0.42723587226444    0.38968787682662
O          -1.44757335011807   -1.42212132564922   -0.35386678250754
O          -2.12191667160437   -1.27181904839723    1.95182654628603
H          -1.29755936799418   -1.80879440595832    2.09782569043713
H          -0.63166539323077   -1.14969739548533   -0.88402446512168
O           0.64156555979973   -0.81083125553135   -1.69473310084542
H           0.52296140157654   -1.02733464623935   -2.62094198502528
O           2.17839161507675   -1.45782550192100    0.46758718727419
H           1.68077020551678   -1.22393501813726   -0.33811911985892
H           2.94190023605322   -1.96751819629432    0.19106603645599
O           1.95465060227471    1.37936498919218    0.93699264828234
H           2.36772128159316    0.50763669228586    0.95418776578441
H           1.03250222483201    1.20070430543459    1.17712425088427
O           0.08490743888079   -2.62817405116198    1.81343025853085
H          -0.16464041535858   -3.17394650944562    1.06305872473061
H           0.84240830797326   -2.08674560885842    1.51640378854189
O           0.98422792553878    1.66769179500459   -1.55234325661987
H           0.09024513027755    2.06141554887701   -1.37218665023384
H           1.46361689401591    1.72825944410972   -0.69530853722973
H           0.77486358021289    0.22852620262349   -1.65677484230725
N          -1.44545174086883    2.62987743051808   -0.91128972131968
H          -1.29555814490936    3.33519770888846   -0.19975509401261
H          -1.95061887430407    1.86639151824040   -0.46582069761286
H          -2.05549965312788    3.03214724995206   -1.61276856069537
