    26
        -50.44798318  Gyration_radius:  2.5229025885 Dipole_moment: 2.349
 S          -0.05080816878398   -1.50156409731047   -0.60805688031376
O          -1.48942801625656   -1.47471372418016   -0.57067340709133
O           0.56973785287879   -0.52764757746896   -1.45070511543429
O           0.48152238699599   -1.40465297113964    0.82570325593414
O           0.43625070026389   -2.90162322983883   -1.03136307615055
H          -0.09400151377937   -3.51651836547824   -0.46800470787000
H           0.27418265535588   -0.48442350435115    1.30547148003553
O          -0.00873656715372    0.73859434300471    1.98428941926656
H           0.40283028403209    0.71202629138142    2.85095092668204
O          -1.29949133624490   -3.83207977708316    0.66436493850476
H          -1.02699024792089   -3.61932809235892    1.56060470031575
H          -1.78356686857227   -3.05986866889400    0.32570649203102
O           2.85272251495446    0.62397202223612   -0.59932652706666
H           2.07019406309008    0.14343986345305   -0.92669024643584
H           3.36768721394295    0.85878910519503   -1.37316545668696
O          -2.39192423684699    0.98416508940501    0.35920213527768
H          -1.80601247314991    1.02155935550496    1.12302533423063
H          -2.25654121748491    0.11197276948415   -0.03701715132041
O           1.25639662507773    2.43768319611683    0.63654934995555
H           0.50381460995539    1.48420733454759    1.45031506675804
H           1.98322630108193    1.89384399451197    0.27502072749965
H           0.62637622693725    2.56263576975510   -0.12917401144818
N          -0.46256271707982    2.30081248546586   -1.37560983044289
H          -0.68187756982098    2.93530769796066   -2.13257828478378
H          -1.32973452685736    2.08896203762041   -0.88185344929996
H          -0.14326596470091    1.42444868239918   -1.77698566201734
