    26
        -50.44238264  Gyration_radius:  2.57207322126 Dipole_moment: 6.709
 S           1.05173051530876   -0.54678675178301    2.16921329846506
O           0.98084804117851    0.67684056950750    1.40320445436721
O           2.08449438573750   -0.64676663765939    3.13087313406475
O          -0.34525936466225   -0.79834731236858    2.79288501858868
O           1.20377558335742   -1.73632792866816    1.18084138307563
H           0.48709881548104   -1.68213560428674    0.48946200847279
H          -0.92791112747648   -0.00477879013390    2.55872364581766
O          -0.61458268165160   -1.63891503969810   -0.67326226589206
H          -0.67288348796218   -2.51922996291528   -1.04904352879386
O          -1.15111569526585    1.88553393102557   -1.86468216988288
H          -1.67715498596532    2.38231007901010   -2.49253605166894
H          -1.76741476748879    1.38700000423289   -1.30905050694546
O          -2.64692301608163    0.08060285482277   -0.29682903419488
H          -3.47158805248389   -0.37955390740572   -0.13355393171332
H          -1.94991934655051   -0.60348981945205   -0.40128943460761
O          -1.54873271121170    1.27142676658212    1.91599688821046
H          -2.03826127924857    0.96580065865467    1.12947355538770
H          -0.66668324127261    1.52442615765005    1.59684655213946
O           0.59827802471895   -0.18288704744795   -2.33784589085392
H           1.46377062039276   -0.02022995258233   -1.87393258275614
H          -0.11397795270157   -1.06235077510901   -1.37916555963235
H           0.10315434886588    0.65336341653838   -2.26981529267573
N           2.74478054560126    0.20811778161739   -0.79616424996080
H           2.20516548999147    0.52676922216707    0.00787537007360
H           3.45589380128614    0.90345368782280   -0.98508050592887
H           3.21341752809505   -0.64384560012128   -0.51314431316250
