    26
        -50.44406856  Gyration_radius:  2.49789630364 Dipole_moment: 8.361
 S           2.22660669735068   -1.19377611119837    0.19331043682721
O           2.32337548316999    0.18874094940340   -0.19983449591512
O           3.23167742964300   -1.68495710887401    1.06556508129550
O           0.80751704797224   -1.37115523219952    0.87449192864639
O           2.07226546957196   -2.08381448743971   -1.03574149453561
H           1.36122858775121   -1.60810084614302   -1.60478271636831
H           0.58225708031194   -0.55591948100399    1.39074970463938
O           0.16848828869332    0.81666131341678    2.18277928377529
H           0.67236412881526    0.86240875426085    2.99689760354302
O          -0.78534124486917    1.63198141639278   -1.31643232799484
H          -1.34516784142192    1.83710435635844   -2.06665086158340
H          -1.36570322054681    1.28236094137069   -0.61147531539510
O           0.21186350658886   -0.84731155118341   -2.21167193453772
H          -0.57286676372868   -1.23876102904728   -1.74402310131950
H           0.24411051735782    0.07717536792508   -1.91970306642214
O          -2.24378557948600    0.84654594857117    0.86952223659748
H          -2.75416214113412    1.55553069347068    1.26553718103436
H          -1.46442241472652    0.72025732542886    1.43878841162442
O           1.15995393647944    2.45805971801915    0.47196641708869
H           0.51075257349977    2.45605395699766   -0.24807010588940
H           0.55225330483858    1.52745999915736    1.56815991581911
H           1.81984243969613    1.79573431957577    0.18864922785689
N          -1.73305247355534   -1.78353110826259   -0.61624955615078
H          -2.35357705762691   -2.55729171105776   -0.81478115915993
H          -2.27528231670339   -1.04209012254611   -0.18748012287118
H          -1.05119544794097   -2.08936628138757    0.07047884939486
