    26
        -50.44406856  Gyration_radius:  2.49793783626 Dipole_moment: 8.362
 S           0.92793354113872   -0.62485980620788    2.27364923025933
O          -0.29621124397548    0.13333558855581    2.31702721333289
O           1.08507116559335   -1.64637514598571    3.24527627455665
O           1.01446016578397   -1.26005259947497    0.82508856258993
O           2.13068525239734    0.31294829235137    2.25205274202488
H           1.88346141161521    1.02531512566141    1.55414844633886
H           0.10737386357983   -1.51674973573620    0.51984319223843
O          -1.39603332731243   -1.87338600765697   -0.02337549175692
H          -1.70101727675545   -2.66548980594297    0.42196194388550
O          -0.88646328330881   -0.49046016155726   -2.34121327492061
H          -0.97920480988701   -1.10884772510840   -1.59527282559429
H          -1.63764461258049   -0.64814193159962   -2.91639485393211
O           1.40557183977550    1.87446838812082    0.40575671761484
H           0.43665299104507    1.85104185272347    0.36563226219053
H           1.70957318802255    1.35406316969985   -0.38448745271068
O          -1.14438680880259    1.75565697125367   -0.78852459748245
H          -0.96086721782022    1.00968887219999   -1.39339505030681
H          -1.09353743645056    2.55915680344822   -1.30824771467473
O          -2.57109161308175    0.17818422227449    0.98377194420694
H          -2.32333053667288    0.89917991869477    0.38485553407526
H          -1.93627914424040   -1.10386142000485    0.35902678447733
H          -1.90660938734793    0.23352821632588    1.69777401253397
N           2.00625828025176    0.17564004008026   -1.58364698254221
H           1.21725252941751   -0.00270262533819   -2.19459254029968
H           2.06026266723631   -0.60084756601420   -0.93233221072162
H           2.84811981237902    0.17956707923768   -2.14438185538362
