    26
        -50.45006320  Gyration_radius:  2.48280633262 Dipole_moment: 2.679
 S           1.33752041739526    1.22281064921075   -0.76396991496171
O           0.38549377464313    0.85221320401075   -1.77558294773585
O           2.61836918111702    0.60236956844675   -0.83117102222792
O           1.49213655823748    2.76070123004892   -0.76710630402780
O           0.76179739894975    0.90751341671841    0.62966460931987
H          -0.23334749258041    1.11103116735468    0.71517794235718
H           0.56705394496466    3.10581979263794   -0.93112520812470
O          -1.72668538402702    1.37104029288137    0.85324964322345
H          -1.91212707709572    1.58879294853092    1.76933424257056
O           0.05832535138214   -1.72851024281504    2.26837738220710
H           0.13384312482569   -2.65686944527971    2.49640022034572
H           0.76625643654444   -1.55030555521316    1.62166013221267
O          -1.02933740348388    3.05626236139058   -1.23050942614314
H          -0.90681096444322    2.32122657178717   -1.84902041842360
H          -1.50354037895799    2.66904022797447   -0.47691547529563
O           2.14322302922617   -1.73740788637117    0.43239883605818
H           2.97586187382159   -1.98588992637980    0.84035947793803
H           2.32213870322269   -0.90115115745905   -0.03628890070360
O          -2.09875895513376   -1.12483688849784    0.73842396111797
H          -1.66096772231967   -1.43175016015605   -0.09690316844681
H          -1.44759517806311   -1.36178796781206    1.42950422459873
H          -1.98909766912652    0.37582109089753    0.75061625031102
N          -0.48334347813368   -1.85744650117174   -1.27218660044576
H          -0.68195923026588   -2.45625365037046   -2.06385399285224
H           0.35021335335507   -2.21417419588418   -0.81709357247028
H          -0.23866221382297   -0.93825894467419   -1.63343995028176
