    26
        -50.44649697  Gyration_radius:  2.48664165577 Dipole_moment: 6.332
 S           0.17351586397393    1.19959495035970   -1.69318359235593
O           0.91709488394685    0.14941610687977   -1.04809674203975
O           0.89390496645244    2.33716832475723   -2.13370929706827
O          -0.62033201329473    0.58938786836581   -2.87240669602488
O          -0.94456261971477    1.67638805471502   -0.71913723570926
H          -1.13255271036014    1.01166814427469    0.00795364746469
H          -0.78575907558519   -0.37373741702265   -2.68395598833807
O          -1.46287029305666    0.11000085380837    1.26682676744654
H          -2.11729608068987    0.56155752018459    1.80233635685852
O          -1.15948614544965   -2.41863394105367    0.38375259609883
H          -1.31519507838529   -1.51491181225443    0.72632204786267
H          -1.61424013048003   -3.02560412012486    0.96965644439195
O          -1.19303652590144   -1.88774476491502   -2.30008220068967
H          -2.10827128186102   -2.08772865553507   -2.50772628074451
H          -1.05440240479226   -2.12199718715956   -1.36334807164770
O           1.58213659905603   -1.69895358134132    0.83356412400705
H           0.79437680275289   -2.24133343490390    0.69986664550687
H           1.57924045912286   -1.08748119655884    0.08114077493787
O           0.76352977622120    0.29711142366728    2.42056963465232
H          -0.56016291846186    0.19346674658647    1.78440337220350
H           1.21112729308407   -0.47790426446877    2.00904170194152
H           1.16161767705699    1.08483500599401    1.97672237124849
N           1.67627879864135    2.28852617451398    0.82476718355427
H           0.99848466444796    3.00184670247150    0.58399848315388
H           1.74606297443488    1.68449284139582    0.01242203830956
H           2.57079649876891    2.75056965740108    0.93830192499549
