    26
        -50.44822829  Gyration_radius:  2.54156147303 Dipole_moment: 3.943
 S           1.73978179037061    0.26471833911046    1.22109803557089
O           0.94977489937331    1.03994152160825    0.29152605323604
O           1.58237495484098    0.59272707910079    2.59101754262747
O           1.43085451081076   -1.23911689007002    0.97176416032749
O           3.22008037528438    0.33876348461729    0.81714143316797
H           3.24407141392444    0.00154398645226   -0.12311790869863
H           0.50718090703134   -1.42886723462463    0.59615132367460
O          -0.81105010610050   -1.84215756140299   -0.07359259596500
H          -1.10605086630056   -2.67737599942571    0.29245893034775
O           0.32708336529942   -0.15450442371409   -1.94929648593678
H          -0.10911065290562   -0.92825257755713   -1.56240586553070
H           0.50666720830544    0.43509321704741   -1.18323531796728
O           2.94133086652036   -0.74832974315286   -1.51980548731789
H           2.05922888526311   -0.49916108854650   -1.87411384123399
H           2.89782703966407   -1.68412937716558   -1.30857322053350
O          -2.17774216689940    1.06314823651160   -2.06201739640940
H          -2.63656016577344    0.91632110018409   -2.88993068779930
H          -1.26004651304963    0.76321329989026   -2.18935889644006
O          -2.62488469914390   -0.13914037242848    0.37123134060844
H          -2.23942487863180    0.45118728876283    1.07028110009336
H          -2.62078238731499    0.38773138340777   -0.44927706991176
H          -1.56581560655032   -1.16337574460394    0.12677842898107
N          -1.27169032271783    1.40472612759954    2.09514786520379
H          -1.62757926695268    2.30491438067937    2.39368182410641
H          -0.51002874882300    1.57606077391703    1.44411536003780
H          -0.84548982551553    0.96432079380485    2.90233137575634
