    26
        -50.44639624  Gyration_radius:  2.51389496269 Dipole_moment: 3.606
 S          -0.74041263430870    2.19393125905007    0.37011872882779
O           0.62323520432845    2.64553375099150    0.42222535267685
O          -1.77827252807660    3.15235379474316    0.31512715897151
O          -0.87118070435329    1.23482144057031   -0.86254273458844
O          -1.01185798474835    1.25181789209944    1.57130083797424
H          -0.26741795297062    0.58315674362257    1.66162033899281
H           0.02880560431672    0.97918058630708   -1.21133339573229
O           0.79875089450960   -0.56340348604737    1.79595343250327
H           0.80905200421412   -0.87249475448903    2.70346690492360
O           0.74560042444278   -2.08750482881606   -1.97063667189912
H           1.56679804120638   -2.56891331000259   -2.08304506884107
H           0.96554399420190   -1.14355205358380   -2.01461925691930
O           1.47173883695722    0.58719489513578   -1.78525411133873
H           1.75082313101009    1.29032716516994   -2.37450061462217
H           2.04133437564818    0.67079786411129   -0.95554790140395
O           2.66901497081739    0.94439629556343    0.46454971091208
H           2.24372531164517    0.28504038436551    1.03609710801458
H           2.13825288453833    1.75432778155105    0.58976668616866
O          -0.46841831418389   -2.31079811489634    0.46334255070546
H           0.33438556950610   -1.30363362028760    1.25538716067583
H          -1.35620645636000   -1.88456875706009    0.37083239082351
H          -0.09613233029161   -2.33773500760016   -0.43883335294089
N          -2.72231202832263   -0.83453067812844    0.20167780941792
H          -2.90718823069892   -0.35952220084426    1.07724385982190
H          -3.60345110600020   -1.17315866357039   -0.16386778979701
H          -2.36421097702621   -0.13306435795767   -0.43852915331099
