    26
        -50.45019498  Gyration_radius:  2.45229565431 Dipole_moment: 4.168
 S          -1.09200550644744    1.54825463230739   -0.59025792151510
O          -0.37897592776668    1.03058625803693    0.54983599360467
O          -0.81429328291183    2.88978298390657   -0.96302953270876
O          -0.81501811664439    0.64103876334945   -1.81468601935845
O          -2.60264027626260    1.35483902116872   -0.32794781573686
H          -2.70240065528000    0.73948766172232    0.46386318071505
H          -0.50648766829187   -0.27669427942888   -1.54462288713070
O           0.11217455508460   -1.67517873674430   -1.20631608581933
H           0.26561413472178   -2.16319857283782   -2.01722657103411
O          -2.57934315038179   -0.15847039557268    1.75560093502711
H          -1.99824105949728    0.39301773086249    2.28697875277967
H          -2.05316467903433   -0.96058193673345    1.55083844495522
O          -0.99504941855311   -2.28770733666558    1.18190179813444
H          -1.38826333017263   -3.16103608973122    1.14472411389549
H          -0.61567226272524   -2.10380228037866    0.29912955620673
O           1.20620117625105   -0.59355576549790    2.02503781252435
H           0.69897307858461    0.13309182416360    1.62909148427746
H           0.59458036995788   -1.33847186023633    2.04864058082847
O           2.30830632473524   -0.72890862058213   -0.42626809907757
H           2.26538589864581    0.21738789787145   -0.71659174297543
H           2.14512603901343   -0.70857835955812    0.54181346520214
H           1.04579154602682   -1.32565155073159   -0.89929664927712
N           2.01758035193972    1.86341455882229   -1.17979163655115
H           2.60958894102033    2.47252926894537   -0.62712322222002
H           1.05676448478473    2.14373741405126   -1.00946569582215
H           2.21546844324498    2.05466776953971   -2.15483219890310
