    26
        -50.44639629  Gyration_radius:  2.51396926323 Dipole_moment: 3.606
 S           1.82915441174240    1.38661097758854   -0.48129086912855
O           0.97711839916020    2.23732742424358   -1.26649674310351
O           3.13816321752228    1.82316215603197   -0.17361198581412
O           1.07401802397463    1.06961062523078    0.85502076417438
O           1.92734830114199   -0.00356075757311   -1.16081796110804
H           1.01326915331998   -0.32260241334870   -1.42933975878888
H           0.11367032237535    1.33583340187087    0.79280471802031
O          -0.39101202357148   -0.93752113439720   -1.77467100475381
H          -0.28456958488925   -1.57558862976753   -2.48231407424157
O          -2.25970193323410   -0.61535923271129    1.82069201783095
H          -3.20083182543276   -0.66497447114720    1.64564438873709
H          -1.96754329709800    0.26495885110442    1.53608166158750
O          -1.52729142784658    1.56161109865957   -1.86009944366234
H          -1.34992225495882    0.61705481529092   -1.99654666829832
H          -0.64834676334126    1.98411374619562   -1.90806277077526
O          -1.42094725896954    1.78454483149938    0.70146177694974
H          -1.58782708513113    1.70949407406742   -0.29176053784066
H          -1.46294330174089    2.71936280737018    0.91086299002271
O          -0.66527648069038   -2.28032781403940    0.35997595971970
H          -1.24979675181716   -1.78235559118362    0.96294062703480
H          -0.55831089195189   -1.49004128149231   -0.92472956980566
H           0.23964906325909   -2.21396162893734    0.75373114179488
N           1.82568683348803   -1.77412578395067    1.29098575905111
H           2.25268880721736   -2.22262448844180    2.09176296920948
H           1.70336535262411   -0.79039487224926    1.50875961602426
H           2.48018899483910   -1.82024670991011    0.51901699718764
