    26
        -50.45090193  Gyration_radius:  2.44431209142 Dipole_moment: 8.450
 S           1.55300240419212    0.34909437816877    1.77158137260748
O           1.13267269749016    1.44951585308216    0.88853031579460
O           1.30366351451809    0.58732687252165    3.15528498168883
O           0.60381260854444   -0.88040269639597    1.31962200109741
O           2.87568092061887   -0.13575505014392    1.39388721372697
H           2.66749208706800   -0.16119519114872   -0.09782159231111
H          -0.32011292029796   -0.60456172433965    1.50447682733103
O          -1.91297604971513   -0.04553396365716    1.56590796908889
H          -2.05477040743873    0.11608083555856    2.50013568576828
O          -0.73121919051518    0.86107952681250   -2.03258710907009
H          -1.18693598888865    0.07006202397848   -1.69882551265663
H          -1.09508306391207    1.04571038692228   -2.89925426289992
O          -2.06516468213885   -1.28568905680424   -0.87463036708229
H          -2.05212288820551   -0.95248740360790    0.04111414756332
H          -2.92835916038601   -1.67991546758696   -1.00948181830564
O           0.60130391193963   -2.14898214791247   -1.09397378358541
H          -0.34395383517775   -1.98790874795848   -1.22644657153033
H           0.72048844544753   -2.09730419944768   -0.13230132655133
O          -1.31773793577739    2.16280870053459    0.38029237909894
H          -1.23860838550157    1.93311332455355   -0.55892999279002
H          -1.77801299380895    0.86185698535185    1.14106143625388
H          -0.38809069834372    2.10962958859311    0.69845786365730
N           2.13818060612150    0.05014685522755   -1.02245472245510
H           1.52420323503869    0.81414837647483   -0.65675915504345
H           1.55465409643338   -0.78498321903386   -1.27598399920249
H           2.73799366275704    0.35414516028750   -1.78090198021045
