    26
        -50.43956802  Gyration_radius:  2.80402044002 Dipole_moment: 9.531
 S           0.09737940098287   -0.66432143221331    3.12299380124948
O          -0.99795592608284   -0.30850631818042    2.25807493061061
O          -0.19872406316358   -1.48432073473600    4.23986427060254
O           1.18934718006479   -1.35263433860543    2.22139712822380
O           0.84046262646936    0.60652560384493    3.56884813353864
H           0.97795203704286    1.10342729913166    2.71102188714247
H           0.77180301583964   -1.77140644371898    1.42361386034610
O           0.21265930329749   -2.35430344692162    0.01088213403592
H          -0.07496640055420   -3.26376917310786    0.10037202742873
O           1.08589147278481    1.59604132254057    1.20669113229664
H           1.51149942930352    0.92879484577514    0.63643767984965
H           0.22334097135473    1.75111472065800    0.80362617247138
O          -0.34724989132161    1.23046327671527   -1.24601252860699
H          -0.67701164547117    1.45594332514909   -2.14178621607816
H           0.52559814096691    0.83893548840503   -1.36250992647663
O           2.03069045364680   -0.33926767077092   -0.55759091890967
H           1.44655913159980   -1.11065063349733   -0.47628080841193
H           2.87057406010935   -0.60353238615150   -0.17760469515514
O          -1.80320342716810   -0.80024857842263   -0.23267858898529
H          -0.62660330162616   -1.79947138730077   -0.14576941440624
H          -1.80182918033544   -0.59529707184066    0.71965674394384
H          -1.39087711396197   -0.01188829272545   -0.64816129320160
N          -1.33783483431914    1.70015092885672   -3.77235616703462
H          -0.70906682586771    1.54928329900247   -4.55158006620328
H          -1.70368610548097    2.64163731505777   -3.84335328322555
H          -2.11474851814639    1.05730048306416   -3.86779597504521
