    26
        -50.46862842  Gyration_radius:  2.47510082542 Dipole_moment: 4.038
 S           1.37114257933870   -1.48081218440897   -0.98682402075747
O           0.40200201696011   -0.64258876261520   -1.71334142575857
O           2.08475974036540   -0.71265740408774   -0.00371654936509
O           0.75860717895961   -2.69761483301208   -0.49523436137100
O           2.42473268095017   -1.94738605332705   -2.07967136795496
H           2.00500467405152   -2.73270306918440   -2.41474776330459
H          -0.09252142735192   -2.17720431401218    0.76676052506449
O          -0.68844116954271   -1.82498459761324    1.47294581181917
H          -0.66356056284487   -2.46615384500502    2.18532172017199
O          -2.06873216533482   -0.78365761284490   -0.67502731544106
H          -1.87113430659878   -1.27392109763354    0.13766399937720
H          -1.23818542688633   -0.82303912426925   -1.18967078856256
O           1.81900986508677    1.64792497658346    1.20293300655167
H           2.17339896511652    0.78331853001301    0.92271732896196
H           1.04717372088562    1.89908532318877   -0.06442227073203
O          -2.12582950950202    1.70754112978195    0.05763449324966
H          -2.99476216040954    2.08773726371655   -0.07220268799800
H          -2.18835174103756    0.74903247356378   -0.23212228709919
O          -0.49886829860634    0.83519750971484    2.23605320313341
H           1.06460087432107    1.42221629122380    1.79606064874378
H          -1.15897877173669    1.23835756234150    1.65623160927455
H          -0.51724688730650   -0.11621100385729    2.03506125246374
N           0.39891713715623    1.86756463391419   -0.94281734326829
H          -0.57965429028644    2.01965641017364   -0.63208540695521
H           0.46055636603585    0.87927155015752   -1.32125300990532
H           0.67636092820970    2.54203023749137   -1.64624702033729
