    26
        -50.46862856  Gyration_radius:  2.47520580389 Dipole_moment: 4.020
 S           1.54438829915703   -1.55837379747651    0.48275206336203
O           1.40096409571590   -0.91964615917492   -0.83668123899987
O           1.46356535139073   -0.58685377059076    1.53897342270100
O           0.66063055602176   -2.69736821642459    0.62177266526073
O           3.01475671480476   -2.15827959111570    0.50170032877461
H           2.86597420023434   -3.01794291837241    0.12226210105036
H          -0.77235381374410   -2.00324577653290    0.85183719696554
O          -1.65634960513137   -1.56157794424424    0.88862804087868
H          -2.17583994787985   -2.05995041753510    1.52188406679585
O          -1.44514197181869    1.57139056561071   -1.69867646290989
H          -1.95750425658324    1.87367028238715   -2.44868203606255
H          -1.37588628061913    0.57419770416178   -1.78449014771565
O          -1.11808321885338   -1.00460885730570   -1.75787503224771
H          -1.56693592812287   -1.32765472775032   -0.96159930966154
H          -0.16618365010150   -1.09129860709419   -1.55139685214102
O           0.65168636331748    1.93565318963714    1.81640498165136
H           0.96922629995260    1.91061474339294    0.34539717956516
H           1.02657890123024    1.05487935823793    2.00459241457326
O          -1.80988203731186    1.19906753969180    1.10954608963465
H          -1.86432419820970    1.45373350469212    0.17861514763620
H          -1.76758786143177    0.22739736364710    1.11517106195514
H          -0.32041858885149    1.78093287032829    1.76284320007115
N           1.08903424172314    1.68480259665655   -0.71636144850293
H           1.82572468976404    2.23457936393484   -1.14264544553109
H           0.17687621137401    1.83673455428582   -1.18780934970485
H           1.30708542397490    0.64914716694759   -0.77616265739685
