    26
        -50.44095205  Gyration_radius:  2.55768810969 Dipole_moment: 8.005
 S          -0.84121581456485   -2.50174834647207    0.51605303789487
O          -0.85177455688447   -1.42481674089905   -0.45230304124236
O          -1.89642788120925   -3.43405353504204    0.46824961538527
O           0.52948691655280   -3.21911047021117    0.41259182351491
O          -0.80956972601803   -1.84842382979915    1.92789823239870
H          -0.12062560998146   -1.13399525540352    1.97376358698895
H           1.19108907605028   -2.53883827737551    0.10457073886938
O          -0.13178345157722    2.15029692711878    1.08718543648450
H          -0.50428432022281    2.80916142901468    1.67498877395790
O          -1.22050542561226    0.75708406070983   -2.55823179618745
H          -0.32272949611687    1.10263797349340   -2.35335344816517
H          -1.18203365676732   -0.19017978204207   -2.39824749765505
O           1.00797821992826    0.03329036855269    2.06022786641944
H           1.24305888944284    0.19460053942560    2.97573494920920
H           0.58598664137066    0.87454530331668    1.71324428023490
O           1.77887924194266   -1.08040045793298   -0.33179162948237
H           0.89044041023617   -0.89614763460123   -0.68429753986908
H           1.82465988755663   -0.60793102496809    0.51301645646394
O          -2.11082902166907    0.96504601485313   -0.06024265266092
H          -0.92246231485242    1.72926859474836    0.61732392438925
H          -2.00700338809643    1.13950378749699   -1.02331625560348
H          -1.87634198854853    0.02621934116450    0.00494813126970
N           1.21799305958014    1.66805795421029   -1.66650359649623
H           0.99095780788410    2.02286812459142   -0.74360307280270
H           1.59259691923776    2.43395098593660   -2.21094986480100
H           1.94445958228941    0.96911394010316   -1.56695642849341
