    26
        -50.46018301  Gyration_radius:  2.459794386 Dipole_moment: 4.614
 S          -1.36654652991364   -0.92718167773768   -1.13210992398302
O          -2.19960359300984   -0.41709929278073   -0.03730336575202
O          -1.94581217917845   -1.96564854541905   -1.91225168265639
O          -1.10142671239302    0.32602249216238   -2.06249023966459
O          -0.03191889001047   -1.28339815688942   -0.60087879020074
H           1.35729385276427   -0.54761699565135   -0.49414983513169
H          -1.03563475902178    1.04379837041328   -1.40983638257962
O           2.22001842664350   -0.06704071604707   -0.36634778472388
H           2.89380513655497   -0.74557405778141   -0.30914837622541
O           1.47838988888784    1.76262494317540   -2.24490833215845
H           1.95543944559173    1.15564130381641   -1.64863689698752
H           0.89302062816867    1.20658006827552   -2.77046633977846
O          -0.38352963654958    2.45893058189864   -0.52887352201096
H           0.38468738659151    2.37599298957003   -1.15491102996116
H          -0.82953159735038    3.27970126355743   -0.74203095869944
O          -0.06023605163384   -2.96492859242531    1.39159442065752
H          -0.68015434257735   -3.66862952421488    1.19392063909519
H           0.03053423535775   -2.44917232637217    0.55440869888147
O           0.93247011832163    1.31277646575461    1.61158077662891
H           1.57418617406040    0.85788627844257    1.03551198802039
H           0.41646119702163    1.86849920768115    1.00408506484693
H          -0.12283734450426    0.19104896499010    2.05811513796958
N          -0.90138316913616   -0.52166256846239    2.16108547459337
H          -0.51737280175017   -1.48949302258638    2.13995541809103
H          -1.51133762554451   -0.43971499488399    1.26691214566968
H          -1.44898123739153   -0.35234246848570    2.99717371605972
