    26
        -50.44075673  Gyration_radius:  2.56979277034 Dipole_moment: 5.623
 S           0.85175986639290   -0.02136829322204    2.20371300353914
O          -0.17187204918047    0.55205417716072    1.36541334037587
O           0.94132698759607    0.45313548265271    3.53278302109037
O           0.71151077865163   -1.57105378029530    2.15298352599717
O           2.22032333307391    0.16945944136876    1.49679172987864
H           2.08580495158267   -0.25584906742226    0.60846101455611
H          -0.20988391846896   -1.85155911638571    1.87811879948623
O          -0.92259124919045   -1.52725108852405   -1.23143063361690
H          -1.18349076886220   -1.74268300154267   -2.12831724885954
O          -1.08621771123622    2.51987031626350   -2.13292442896894
H          -0.19015715251791    2.41068690142586   -1.72180428931254
H          -1.37493180316190    3.40911550886343   -1.92329748929960
O          -1.51616181606808   -2.47435182297984    1.23299612690070
H          -1.50132577614421   -3.43367716146470    1.23389972719014
H          -1.41971006153324   -2.18026573247340    0.30383241562362
O           1.67626266098336   -1.09347407466742   -0.71337108511231
H           0.71158490401341   -1.17306844224215   -0.90373113205765
H           1.98944738933324   -1.98412578120604   -0.54197792829503
O          -2.13207441242793    0.61141104035531   -0.55137780286337
H          -1.84562473404908    1.32019712417056   -1.17087707588408
H          -1.42087706647241   -0.66738527662003   -1.00161422280453
H          -1.62415095953273    0.73877310680451    0.26438011964053
N           1.16835050875799    2.05840023771366   -0.74448176468942
H           1.80875434357516    2.76227362047264   -0.39941971861759
H           1.72364272517107    1.32771111177373   -1.17371363087503
H           0.71030101973874    1.64302455000903    0.06496561699766
