    26
        -50.44075682  Gyration_radius:  2.56997101507 Dipole_moment: 5.626
 S          -1.62912679658700   -0.07335507322544   -1.70971463882360
O          -0.24885310411423    0.24600949329391   -1.44064913594303
O          -2.11427697664052    0.19547056170397   -3.01045454235105
O          -1.87612237132838   -1.55393133098891   -1.29666725973874
O          -2.51001712108136    0.66900022159317   -0.66949113020941
H          -2.14668892410441    0.36536156404209    0.20451888550940
H          -1.02423436798329   -2.08026954476156   -1.27532274508276
O           0.91537647320851   -1.54114342628104    1.22107852199286
H           1.44623701341256   -1.69219102874420    2.00481971216737
O           2.43852298810823    2.30686662740635    0.89915504949331
H           2.83583677063970    3.00468053412671    0.37647697512572
H           1.45709087653431    2.44250945859448    0.85003345045161
O          -1.47342490901801   -0.34524063492480    1.49210081937522
H          -2.04288422388387   -1.09386193303402    1.68182668558178
H          -0.56689007943340   -0.71393843089444    1.36794216037462
O           0.22748344820811   -2.99694701685677   -0.95385772350512
H           0.58302378505093   -2.54914847896726   -0.15868447049123
H          -0.02796417197955   -3.88449407201347   -0.69391207730343
O           2.25461581336514   -0.06094888527481   -0.36447857022893
H           2.42563367986304    0.78913701008664    0.10064533817416
H           1.48183031638406   -0.94322315271708    0.61917940367402
H           1.51575872105208    0.10222706365450   -0.97040555993890
N          -0.21769507929066    2.42066914358165    0.50545935486725
H          -0.72353294771920    1.99373713718475    1.27250551459634
H          -0.23838285636702    1.75640504426344   -0.26649964760798
H          -0.74131596630541    3.23661914917199    0.21439561978906
