    26
        -50.44075670  Gyration_radius:  2.56979668302 Dipole_moment: 5.622
 S           0.00260078922445    1.38492780333166   -1.91291613297785
O          -0.77626718099141    0.40659960448340   -1.19489794544975
O          -0.50608131451757    1.83350590131283   -3.15371885973474
O           0.30274113633379    2.57081295863336   -0.94996150765456
O           1.42972871457529    0.81104446418901   -2.11996001431124
H           1.73109016283869    0.59529385734323   -1.19758250463685
H          -0.35691277479977    2.61456638110144   -0.19752643645326
O           0.00321095086318    0.43496414320712    2.12413400407263
H           0.13750870344692    0.05016176272813    2.99175152921159
O          -1.14294982552853    2.69523621383947    1.17586392102045
H          -0.80838366951098    1.89135611011880    1.62444600748581
H          -0.87677126527015    3.45084121266320    1.70386906235957
O           2.04573377687258    0.43230841973512    0.38059431732120
H           2.50421044126798    1.24019995128152    0.62098160918538
H           1.26529423026112    0.37026344743513    0.98070319993923
O          -0.89763623973041   -3.30879134184590    0.57019009923666
H          -0.20649078496385   -2.96137753966426   -0.05078455914112
H          -1.46583043983958   -3.88044689286817    0.05216170271201
O          -1.88491148747283   -0.84019015630625    0.98070170393413
H          -0.75156127650254   -0.10484198844555    1.70032010453895
H          -1.74668157675256   -0.43224280884086    0.11225771797398
H          -1.59825935412377   -1.77769009750152    0.89605546695017
N           0.76736839066581   -2.06968764501729   -1.13747923264765
H           1.03674987371972   -2.40430923293762   -2.05405313514540
H           1.60951855283360   -1.75564407280281   -0.66985388626834
H           0.18298151722608   -1.24686045535159   -1.27529621163041
