    26
        -50.44075678  Gyration_radius:  2.56990302118 Dipole_moment: 5.623
 S          -0.31769787440605    1.97896226682464   -1.25151122007039
O          -0.90767781784274    1.14971031401969   -0.22984040353444
O          -1.07534971008188    3.08252680776405   -1.70719840620717
O           1.09861981897932    2.41102203452873   -0.77063803046828
O           0.04886144378543    1.07422612269341   -2.45825779004175
H           0.63571353307022    0.37827868933992   -2.05914777062893
H           1.18543097487197    2.35454782492096    0.22555798418515
O           1.49034863513520   -0.58960290728613    1.45989260207052
H           1.85072620584313   -1.33962455819997    1.93580465533848
O           1.58308152283751    2.10050144181082    1.73817559787512
H           1.57308804691982    1.12163695029725    1.76844779381140
H           2.47845997710807    2.38501557577749    1.93286862434186
O          -2.08641763340130   -2.62367925327358    0.91879175210824
H          -3.04332180796302   -2.65095610292850    0.95937575454872
H          -1.85206902913058   -2.32028176226687    0.00395854032878
O           1.64360266084611   -0.56947828128533   -1.22081513138595
H           1.51024859900161   -0.59943712713664   -0.24384760313982
H           2.51097811361744   -0.18369413019344   -1.36040360542761
O          -0.99234353049948   -0.42381284162722    2.01460632321599
H           0.50008853468764   -0.56265868783030    1.70317967950376
H          -1.18472686118568    0.24322534477541    1.33806026977370
H          -1.41740926901460   -1.25786346474252    1.71141430292721
N          -1.41348306810796   -1.46977866678736   -1.41348404207989
H          -0.47708821022854   -1.73115378703881   -1.69876651717610
H          -1.35568977548190   -0.52054214269985   -1.04853706022989
H          -1.98597347943416   -1.43708967948786   -2.24768627965524
