    26
        -50.43992345  Gyration_radius:  2.56304395333 Dipole_moment: 5.139
 S           0.94300820068650    2.39608601171680    0.81607112734061
O           0.36845013031962    1.67808372663982    1.92371790024554
O           1.59259443928580    3.62128798100541    1.09224925825150
O           1.91327030163765    1.41344593988102    0.09448574536084
O          -0.14539784417085    2.64290973984091   -0.26400383211011
H          -0.35197973085523    1.80495517918013   -0.75431617256505
H           1.75926138161376    0.49542501789428    0.50307956003080
O           1.60564143709444   -0.93856266809281    1.02293416893591
H           1.94475514642486   -0.91609257407434    1.91929544083161
O          -2.03795128210129    0.60500299109832    1.74304043288960
H          -1.17868426922589    1.07190211426085    1.81059762121519
H          -2.48645024732159    0.75757432979784    2.57614929358024
O           1.85929529375434   -0.74768463534945   -1.75142738222925
H           1.82740587331857   -1.19809744903289   -0.89531281421071
H           2.48377340442405   -0.02521381904116   -1.63448866024822
O          -0.44780992140103    0.57213424826761   -1.83427849304038
H           0.39693224636720    0.05261251977017   -1.81988539566291
H          -0.48021101934061    1.01663354772473   -2.68388132886839
O          -0.79598465884511   -1.74554077730835    1.26896297706602
H          -1.32331064687532   -0.94972006992564    1.48826263594519
H          -1.10895807542525   -2.01399145416324    0.37422911688078
H           0.63429286457065   -1.25595138027506    1.11870961073932
N          -1.66155857540255   -2.12682655383061   -1.27582590279809
H          -2.63574918809974   -2.37727231590935   -1.38213262360435
H          -1.11858268296128   -2.68295877636043   -1.92353754276780
H          -1.55605255747754   -1.15014088372592   -1.53269475119595
