    26
        -50.44198541  Gyration_radius:  2.67320557159 Dipole_moment: 8.579
 S           2.71983495726340    1.03683067256781   -0.07332293080292
O           1.37535579093253    1.54439383682239    0.08654761954739
O           3.78498513220010    1.95878387876309    0.06676209692843
O           2.91393325597830   -0.15287945682862    0.87287018870904
O           2.77370103744514    0.39300841996158   -1.50710499637875
H           1.85686771015575    0.10269944721569   -1.71599368780304
H           2.10924779880980   -0.84140303949683    0.73043485704916
O          -1.42070553589799    1.43289969351782   -1.01373053362042
H          -1.09374863856038    2.27414098350264   -1.33747671626527
O          -3.17659754246333   -0.56518774816317   -0.21606717020349
H          -2.62599926581222    0.08022506739995   -0.68670346408548
H          -3.93502181318772   -0.07607322417233    0.10901590337540
O           0.27482743127565   -0.35390437066766   -2.03180604937671
H           0.09634877537102   -0.31477887103770   -2.97325390922192
H          -0.31191145562282    0.32139259133297   -1.60392307800171
O          -1.51353920110406   -1.29686348918224    1.79067741305682
H          -2.04745538707143   -1.59064977662459    2.52978781985530
H          -2.12861044085922   -1.14101095112361    1.04009186585509
O          -0.83321138169651    1.40459428191581    1.52956102759926
H          -0.91194489301333    0.47290647850492    1.78857593564083
H           0.09065588152847    1.53455315334030    1.24390744958446
H          -1.23698687507745    1.46147149092015   -0.02795187884415
N           1.00956125888980   -1.76195167810361    0.41903774412330
H           0.68382340619635   -1.54027417441139   -0.51665418141607
H           0.22435127875168   -1.65975486701166    1.05724015272811
H           1.32223871557409   -2.72316835895165    0.43947854196314
