    26
        -50.43992363  Gyration_radius:  2.56316857064 Dipole_moment: 5.134
 S          -0.99267280649365   -1.44003139420976    2.05759022822397
O          -1.90238179681883   -1.46602722660541    0.94212183615727
O          -1.30336663527134   -2.24354446889226    3.17887388998891
O           0.41694197196838   -1.80092336662260    1.50020465164146
O          -0.79717686590238    0.02498772090700    2.53473110869385
H          -0.22458903557898    0.52969616056741    1.90020321386325
H           0.34084501341369   -1.80018084902243    0.48651000065721
O           0.35910603011038   -1.81109215374949   -1.04646000066540
H          -0.17462197370661   -2.56722608246382   -1.29622622397716
O          -2.62708180582049    0.76792809886115   -0.26580293528282
H          -2.40009000762456   -0.03893400552171    0.24250559890963
H          -3.56302026558994    0.70119437350625   -0.46096934333874
O           2.59243379485544   -0.60381362562307    0.11738413220171
H           2.06521573236769   -0.98109692275985   -0.60129448471753
H           2.56813711089183   -1.25972358804768    0.82080601213288
O           1.00448116382057    1.28227850384096    1.11363315608553
H           1.61120646306416    0.60321738673263    0.72064965228617
H           1.49545760010206    1.71224099166800    1.81685524814273
O          -0.78946462627965    0.17297019261276   -2.15324733751712
H          -0.15842109064708    0.92914317211552   -2.13040486437156
H          -0.10525001700423   -1.00746853722991   -1.48433241781656
H          -1.51268048322714    0.43449821769952   -1.54660265007296
N           0.88380727531631    2.26859783234871   -1.72930126886729
H           0.79995930810355    2.22151620013823   -0.71846910891101
H           0.54859972350365    3.17378224159886   -2.03158101354166
H           1.86462622239935    2.19801111817288   -1.96737705991351
