    26
        -50.44198533  Gyration_radius:  2.67347995247 Dipole_moment: 8.580
 S           0.64320342094997    2.39313159885194    1.52963813316056
O          -0.52613325334284    1.74829348013410    0.97515016376904
O           0.43659925460575    3.55007608603522    2.31894501628718
O           1.45797559820520    1.35365164114608    2.30703288353057
O           1.56142016957546    2.75530242194350    0.30533986744738
H           1.35860228272496    2.09832508127535   -0.39870092902590
H           1.61613894610336    0.50221634892198    1.68136796709471
O          -1.64770429196481    0.42654116590606   -1.48321341088624
H          -2.06621667765107    1.28918848806477   -1.49379032065292
O           0.96035968094839    0.96919379987280   -1.57256417270772
H           1.07780547477421    1.34162672277352   -2.44846710962508
H          -0.00756232765249    0.77791110598380   -1.47345212051441
O          -1.19013157304925   -2.26792417954860   -1.97400259201962
H          -2.07375088481251   -2.62774327337618   -2.07307341904260
H          -1.29131899550695   -1.30343719816405   -2.00127713879811
O          -0.23540667452782   -2.61535430927719    0.53495808983727
H          -0.49442110055345   -2.55015830024462   -0.41091554450438
H          -0.47643830507923   -3.49493512568914    0.82802633535692
O          -1.97326609860778   -0.46192211091921    0.94974324624045
H          -1.50836111721046    0.34830910304569    1.23145005675338
H          -1.82875505272058    0.07740912593161   -0.56038440542433
H          -1.33476278674395   -1.18766956793323    1.03278446613098
N           1.84655113424624   -0.59263793464216    0.73110119727554
H           1.17742153834095   -1.35055996928966    0.84118299372305
H           2.78069983785426   -0.96725695895925    0.82669682449789
H           1.73745180115692   -0.21157724186280   -0.20357604790641
