    26
        -50.44477124  Gyration_radius:  2.61793204852 Dipole_moment: 8.904
 S           1.20812411825652    0.73216637911835   -2.63342392613768
O          -0.21782923261067    0.77668526955337   -2.43920252784069
O           1.74873457968829    1.46054600850054   -3.72014002180166
O           1.86058461110187    1.22710148999996   -1.28457632241301
O           1.67990289594230   -0.73068945870543   -2.69293408517172
H           1.25663996757864   -1.17912616267253   -1.89801801052465
H           1.16195413833107    1.60668267712721   -0.69237681055147
O           0.12464773147957    2.14082336375656    0.46597917194491
H           0.07525647570605    3.09777257617349    0.45990610325524
O           0.61395926740798   -1.64801632694399   -0.55437275681961
H           0.98877115638066   -1.13481937964228    0.18643336051099
H          -0.35145102115551   -1.54492419548233   -0.48079552623924
O           1.57048726866292    0.01405419502430    1.42875982904725
H           1.02813898357706    0.80329777826893    1.25950249762934
H           2.43149261812993    0.20773810527686    1.04982533942831
O          -1.97322218655908   -1.35974925844921    0.32818607930937
H          -2.62966294034910   -2.05492925482787    0.27703582958871
H          -1.59077223385490   -1.37699820494076    1.24864298737349
O          -2.04430696815919    1.23446418659394   -0.55963568788037
H          -0.77345617669877    1.80933900337067    0.13167595083785
H          -1.59656962497707    1.11828679630923   -1.41801297551402
H          -2.17182710087134    0.32914844076148   -0.22637297597966
N          -0.76344209565794   -1.39590242197040    2.72069115592704
H          -1.17173123572239   -0.81004997919038    3.43826547303834
H           0.14599980576592   -1.00817289739933    2.48751453874698
H          -0.61042281136101   -2.31472873960730    3.11744329017288
