    26
        -50.43992385  Gyration_radius:  2.5634305467 Dipole_moment: 5.128
 S           1.87261242527259    1.87454976020835    0.51754941743628
O           2.18919998396248    1.17118075523569   -0.69795066897792
O           2.68977684085607    2.97186860554001    0.87464017753069
O           0.38198297298884    2.31514031958100    0.41000536766741
O           1.83934538077117    0.87283478389397    1.70412581783518
H           1.01973949531239    0.31399498446765    1.67155878511289
H          -0.00256418070819    1.85175906622959   -0.40914013152537
O          -0.70192729244141    1.19711349174150   -1.60569376802678
H          -0.29909880109174    1.59750341554370   -2.37798441017247
O          -0.46652171274734   -0.35087745242495    1.88486469363963
H          -1.15115477004443    0.22278815835316    1.45359708371153
H          -0.61163639115193   -0.28455803313424    2.83089734944149
O          -2.23740028924699    1.25885533351593    0.72628565241669
H          -1.86855363377310    2.12283350098661    0.93394680230911
H          -2.06957182035736    1.13022595513150   -0.21821081940007
O           2.19389697485998   -1.46876138098623   -0.77573965960926
H           2.25558264168097   -0.49311990850349   -0.70366645245274
H           2.94567922658722   -1.74161661850105   -1.30384315708599
O          -0.26432170358992   -1.29547861881635   -1.88044886163938
H          -0.85250144008468   -1.77096979876670   -1.24912771406720
H          -0.52113545264519    0.19205902892841   -1.70818831804051
H           0.64098653461364   -1.44634740532786   -1.53823882180151
N          -1.66403276739838   -2.47841782626443    0.12239291337168
H          -2.64581989030386   -2.27377011659592    0.25600431725097
H          -1.14121874756428   -2.01284109804348    0.85789311315645
H          -1.53134358372140   -3.47594889201737    0.22447130199362
