    26
        -50.46854127  Gyration_radius:  2.40491190881 Dipole_moment: 4.513
 S           1.14688384915646    1.43229145164954    0.04650424203131
O           1.03049464526587    0.76295284443380    1.33936749602713
O           1.21162711104283    2.85725745198591    0.11960159915771
O           2.56722833950487    0.94321687155489   -0.53779022422124
O           0.19870298617452    0.89481019291358   -0.91807155886050
H          -0.72715025040917   -0.33222554982327   -1.50601794951784
H           3.14157125480573    1.66816810911104   -0.31426563234079
O          -1.16511885989471   -1.13780500580206   -1.85539872715452
H          -1.76351141145919   -0.84108379009800   -2.54248464462670
O          -1.59055411132292    2.73804873245377   -0.11567987275530
H          -1.02944045507409    2.12571888830608   -0.61503402137252
H          -0.98225840753792    3.41919291615497    0.18566422332370
O           1.60944189117945   -1.64889438839559   -1.46006842117126
H           0.73696925159927   -1.62755997457170   -1.88221072859493
H           1.89573801989662   -0.72968848775051   -1.38271910754568
O          -1.68732003233441    0.68068295375147    1.69222315700657
H          -0.72367850778905    0.76717132148946    1.76081848344157
H          -1.96284724559456    1.42924178072489    1.13464744989665
O          -1.81946883753502   -1.80268742254131    0.73738564172098
H          -1.96119700506983   -0.90948488339607    1.13366306435117
H          -1.82152866718759   -1.67148095980535   -0.22673626418911
H          -0.31979690981033   -1.94972105624989    0.99335224976466
N           0.75584292221999   -1.83077997024361    1.05952026334822
H           1.17135868456561   -1.98346198975494    0.10730696714279
H           1.16350409542705   -2.44001720449384    1.75928431346523
H           0.92450764756046   -0.81386280978978    1.28713799074313
